15   
torsion grid (-165,)
C       -0.6625669342    0.5031844417   -1.5751566680
C       -3.3609789771    2.4262069964   -3.2183628449
C       -3.9314646164    1.0642045598   -2.8377115783
C       -2.4475271308    1.2715101369   -2.9440159856
C       -0.0037659498    0.7083407404   -0.2321791818
O       -0.3068948988   -0.2946458146   -2.4196451607
O       -1.7180262433    1.3482483045   -1.7206752014
H       -3.4544994443    2.7705831035   -4.2439964103
H       -3.4070534042    3.2056978078   -2.4642592601
H       -4.3419106464    0.9672493242   -1.8373903392
H       -4.4188485144    0.4611500504   -3.5981593566
H       -1.8932533871    0.8034174921   -3.7480460827
H        0.3466734438    1.7405976940   -0.1412964821
H        0.8351359440    0.0204396918   -0.1313333540
H       -0.7274076769    0.5358278214    0.5698229506
15   
torsion grid (-150,)
C       -0.6130016174    0.5367972446   -1.6045452617
C       -3.3032875387    2.4007001753   -3.2501717934
C       -3.9847337789    1.1066469576   -2.8211400691
C       -2.4891215385    1.1844690004   -2.9220555583
C        0.0000311672    0.6950163376   -0.2337221207
O       -0.1399682030   -0.1134483244   -2.5157162865
O       -1.7792620986    1.2303973980   -1.6849441964
H       -3.3628635246    2.7102148290   -4.2894800341
H       -3.2872252128    3.2107752115   -2.5277159300
H       -4.4072300982    1.0819186121   -1.8214785864
H       -4.5167267237    0.5175556958   -3.5624408213
H       -1.9627871647    0.6465415613   -3.7003507489
H        0.1951040221    1.7521576944   -0.0311080285
H        0.9299572455    0.1292890242   -0.1854686105
H       -0.6954706511    0.3372410377    0.5310246102
15   
torsion grid (-135,)
C       -0.5835488062    0.5896309238   -1.6201189834
C       -3.2391636970    2.3695412998   -3.2729239941
C       -4.0242511290    1.1523061000   -2.8005083875
C       -2.5286796541    1.1015680211   -2.8937624516
C        0.0005065169    0.6880911030   -0.2311998914
O       -0.0245346910    0.1091469921   -2.5862022075
O       -1.8375176522    1.1139279410   -1.6454219313
H       -3.2687063652    2.6438560963   -4.3233944276
H       -3.1584307774    3.2015578427   -2.5803201732
H       -4.4515820398    1.1991025249   -1.8037118913
H       -4.6005322638    0.5821093029   -3.5231620730
H       -2.0410656890    0.5007006266   -3.6510114679
H        0.0438458258    1.7352623830    0.0823178537
H        1.0012535277    0.2572452291   -0.2277976627
H       -0.6373929606    0.1581995661    0.4820960142
15   
torsion grid (-120,)
C       -0.5746973406    0.6555941068   -1.6320653484
C       -3.1687220656    2.3298351672   -3.2954781700
C       -4.0523278742    1.1991647221   -2.7841625069
C       -2.5676393840    1.0196112876   -2.8696345443
C       -0.0018972463    0.6841925347   -0.2353811011
O        0.0377914065    0.3634088345   -2.6397386913
O       -1.8912207518    0.9971256003   -1.6138464446
H       -3.1732035347    2.5689869429   -4.3548415227
H       -3.0183547343    3.1754473465   -2.6315025543
H       -4.4758608203    1.3147119976   -1.7913679628
H       -4.6734469533    0.6552008269   -3.4895389125
H       -2.1307478579    0.3595569652   -3.6089156346
H       -0.1029945171    1.6874288807    0.1890474819
H        1.0491256874    0.3989640934   -0.2688815340
H       -0.5556722037   -0.0026384295    0.4112010988
15   
torsion grid (-105,)
C       -0.5880945666    0.7200896415   -1.6381412056
C       -3.0925486417    2.2800206953   -3.3101576835
C       -4.0704063267    1.2430482962   -2.7713095991
C       -2.6076145553    0.9347466574   -2.8491536421
C       -0.0079522504    0.6836725821   -0.2448367320
O        0.0448891192    0.6209182668   -2.6697486204
O       -1.9403315877    0.8708879463   -1.5907109932
H       -3.0749514607    2.4905919437   -4.3752536289
H       -2.8695681597    3.1267740733   -2.6684009379
H       -4.4829778256    1.4190689179   -1.7828108242
H       -4.7355056146    0.7365886065   -3.4642847765
H       -2.2310141221    0.2241098306   -3.5759138765
H       -0.2412059169    1.6143646818    0.2808233084
H        1.0718753499    0.5511346283   -0.3046924801
H       -0.4545553161   -0.1355530591    0.3260264256
15   
torsion grid (-90,)
C       -0.6127751649    0.7815252978   -1.6419275568
C       -3.0145577337    2.2249717824   -3.3194858953
C       -4.0757388815    1.2870055811   -2.7567729140
C       -2.6456640665    0.8520305031   -2.8377755158
C       -0.0204498718    0.6910069791   -0.2563142749
O        0.0153383618    0.8714156091   -2.6766987539
O       -1.9739277392    0.7384476692   -1.5859107603
H       -2.9835017226    2.4133812869   -4.3882095634
H       -2.7136124617    3.0609331345   -2.6957736544
H       -4.4637005436    1.5139081554   -1.7686465273
H       -4.7873213672    0.8277404024   -3.4362933018
H       -2.3400309758    0.1022339574   -3.5599951504
H       -0.3753056260    1.5249317120    0.3565713143
H        1.0667759565    0.7152301841   -0.3238056691
H       -0.3447657273   -0.2334701572    0.2301768785
15   
torsion grid (-75,)
C       -0.6398600000    0.8356541216   -1.6439464434
C       -2.9465224034    2.1633725000   -3.3326682833
C       -4.0700533903    1.3255263341   -2.7336082741
C       -2.6814832185    0.7732346087   -2.8380858848
C       -0.0411606280    0.6908725878   -0.2654671934
O       -0.0295071214    1.1100624282   -2.6558644998
O       -1.9841409142    0.6035916614   -1.6072051890
H       -2.9197212411    2.3320374716   -4.4045852996
H       -2.5641662401    2.9818225821   -2.7312389403
H       -4.4145640475    1.5965195256   -1.7404330378
H       -4.8323291533    0.9151517419   -3.3890865293
H       -2.4603710995   -0.0062976062   -3.5610050551
H       -0.4995716869    1.4116740383    0.4181405346
H        1.0342162738    0.8586686153   -0.3169075681
H       -0.2458112015   -0.3087384719    0.1287411065
15   
torsion grid (-60,)
C       -0.6587393210    0.8995767333   -1.6362451506
C       -2.8936186936    2.1089530477   -3.3642106772
C       -4.0481553482    1.3692287097   -2.6992739545
C       -2.7062470567    0.7156155800   -2.8467376886
C       -0.0647595146    0.6885871949   -0.2637049301
O       -0.0733236968    1.3536826137   -2.5962318508
O       -1.9626532530    0.4932302636   -1.6519865557
H       -2.8971056151    2.2481860175   -4.4406477092
H       -2.4310807910    2.9145162700   -2.8045836191
H       -4.3274958370    1.6865226719   -1.6992524265
H       -4.8661803505    0.9971666044   -3.3090297346
H       -2.5820211080   -0.0908576343   -3.5639354073
H       -0.6151850309    1.2780074227    0.4756530697
H        0.9833274137    0.9864512211   -0.2717712783
H       -0.1535796653   -0.3625856473    0.0253640396
15   
torsion grid (-45,)
C       -0.6742773638    0.9749295942   -1.6090686809
C       -2.8664415385    2.0620457536   -3.4205866827
C       -4.0162402643    1.4148610994   -2.6584040212
C       -2.7205274668    0.6818400083   -2.8557456909
C       -0.0864820811    0.6744891233   -0.2497864930
O       -0.1244225656    1.6042146212   -2.4875560167
O       -1.9177253731    0.4187923089   -1.7079698955
H       -2.9272663807    2.1521381419   -4.5007712039
H       -2.3349925991    2.8686492035   -2.9306273650
H       -4.2141227524    1.7888869555   -1.6583961342
H       -4.8902889874    1.0618174263   -3.1979278392
H       -2.6958693548   -0.1544644910   -3.5487357420
H       -0.7111295622    1.1162364273    0.5323363715
H        0.9231424974    1.0804236593   -0.1932720860
H       -0.0668614934   -0.4058663698   -0.0803443623
15   
torsion grid (-30,)
C       -0.7017668013    1.0667410759   -1.5561220550
C       -2.8617659056    2.0139902777   -3.5143961856
C       -3.9786946605    1.4705706221   -2.6330730981
C       -2.7282223645    0.6684904606   -2.8631344396
C       -0.0936444916    0.6379574164   -0.2398826987
O       -0.2163323333    1.8779495540   -2.3159551922
O       -1.8691159798    0.3914961075   -1.7588241957
H       -2.9979006956    2.0216893676   -4.5919246657
H       -2.2718444274    2.8335527038   -3.1272943022
H       -4.0883673043    1.9230105492   -1.6518824913
H       -4.9035937761    1.1199558849   -3.0819971796
H       -2.7957170909   -0.2091109198   -3.4992211521
H       -0.7711053845    0.8865343383    0.5824239852
H        0.8616253787    1.1433577754   -0.1006719917
H        0.0497128034   -0.4462499191   -0.2284559063
15   
torsion grid (-15,)
C       -0.7616942572    1.1690280857   -1.4600765469
C       -2.8412470275    1.9509284527   -3.6286615958
C       -3.9283618774    1.5486694920   -2.6428252131
C       -2.7297134645    0.6650910523   -2.8549709224
C       -0.0625223445    0.5882567085   -0.2509580516
O       -0.4077414722    2.1689770388   -2.0503212916
O       -1.8399120271    0.4005286499   -1.7698027652
H       -3.0420570114    1.8504011380   -4.6918398500
H       -2.1991410142    2.7760838139   -3.3575184934
H       -3.9596681472    2.1018301535   -1.7086077951
H       -4.8933238708    1.2058072628   -3.0050789178
H       -2.8782271101   -0.2617818589   -3.3997098467
H       -0.7452832258    0.5737801375    0.6036689713
H        0.8141479172    1.1913941978   -0.0164280144
H        0.2348557978   -0.4453561687   -0.4495504356
15   
torsion grid (0,)
C       -0.8482823882    1.2185110396   -1.3646843918
C       -2.7845439355    1.8763842996   -3.7084795958
C       -3.8636538902    1.6303034730   -2.6641065246
C       -2.7383421009    0.6476994460   -2.8366453917
C       -0.0137368763    0.5542375484   -0.2923948962
O       -0.6676160389    2.3449171676   -1.7831151237
O       -1.8326538167    0.3756783709   -1.7643460758
H       -3.0269732368    1.6994667170   -4.7531729899
H       -2.0873942373    2.6791773022   -3.5206741113
H       -3.8217655775    2.2616358603   -1.7816531852
H       -4.8623708218    1.3332114440   -2.9709851123
H       -2.9693585668   -0.3031997368   -3.3044097840
H       -0.6482614618    0.2658732946    0.5506041235
H        0.7601818986    1.2443923123    0.0424186838
H        0.4432328899   -0.3585136937   -0.6856166920
15   
torsion grid (15,)
C       -0.9535722235    1.2218597928   -1.2901561241
C       -2.7637264577    1.7989962309   -3.7414590903
C       -3.8286605800    1.6672370798   -2.6602419759
C       -2.7718053988    0.6095003540   -2.8158657603
C       -0.0154916436    0.5562110377   -0.3089345990
O       -0.9341728353    2.4032393626   -1.5774852442
O       -1.8314566971    0.3140043389   -1.7789721245
H       -3.0402081757    1.5943639682   -4.7725675408
H       -2.0218668432    2.5713630917   -3.6007529656
H       -3.7260753884    2.3430367920   -1.8177867406
H       -4.8497927891    1.4147624704   -2.9315132517
H       -3.0740055816   -0.3430118576   -3.2363321725
H       -0.5877576730    0.0996054885    0.5038409247
H        0.6737181478    1.2986374583    0.0924910097
H        0.5421215897   -0.2427156835   -0.8061757187
15   
torsion grid (30,)
C       -1.0056820586    1.2143909578   -1.2419366960
C       -2.7395762682    1.7501921364   -3.7645469935
C       -3.7803367913    1.7036833987   -2.6487926187
C       -2.7784962360    0.5939151790   -2.8024522596
C       -0.0093675343    0.5619102961   -0.3111484326
O       -1.1034868970    2.4126032159   -1.4273489195
O       -1.7804605758    0.2724720320   -1.8287556972
H       -3.0486789868    1.5387495809   -4.7847378792
H       -1.9597612915    2.4916237036   -3.6566030043
H       -3.6315812420    2.4100472559   -1.8410533710
H       -4.8157575975    1.4784552040   -2.8887989505
H       -3.1419919432   -0.3532974423   -3.1842835667
H       -0.5358757109   -0.0139224818    0.4555629026
H        0.6046447850    1.3307459410    0.1570462941
H        0.6232094628   -0.1352804930   -0.8680975555
15   
torsion grid (45,)
C       -1.0408545529    1.2112350613   -1.2048793549
C       -2.7438969726    1.7125512258   -3.8018520925
C       -3.7493576125    1.7338420450   -2.6497144196
C       -2.7804437024    0.5945084537   -2.7996765838
C       -0.0125127734    0.5605386245   -0.3084503899
O       -1.2316959505    2.4095305479   -1.2905278276
O       -1.7137656657    0.2674672658   -1.9039354980
H       -3.0858915071    1.4894438237   -4.8086555047
H       -1.9380784233    2.4327350596   -3.7308142194
H       -3.5692374936    2.4716719109   -1.8795708177
H       -4.7934933107    1.5117271649   -2.8529934683
H       -3.1876297797   -0.3525024934   -3.1355383069
H       -0.5069583900   -0.1071975829    0.4031819234
H        0.5393992861    1.3321389765    0.2275953597
H        0.6747228615   -0.0465996180   -0.9046084544
15   
torsion grid (60,)
C       -1.0781822168    1.2171059739   -1.1387712044
C       -2.7631424724    1.6803492671   -3.8405276489
C       -3.7264734803    1.7854396332   -2.6571582289
C       -2.7872364591    0.6174377744   -2.7818125750
C       -0.0118487467    0.5509806268   -0.2994393499
O       -1.3580736162    2.3997610965   -1.0969353158
O       -1.6595400851    0.3085134381   -1.9576675415
H       -3.1406763468    1.4274731092   -4.8271231827
H       -1.9308606083    2.3758141215   -3.8247745223
H       -3.5162154223    2.5584164185   -1.9323004960
H       -4.7782366146    1.5643191855   -2.8188966243
H       -3.2298461324   -0.3348905052   -3.0523825774
H       -0.4624335054   -0.2194645173    0.3331996883
H        0.4806421695    1.2997054313    0.3204210416
H        0.7203399065    0.0578278691   -0.9451503947
15   
torsion grid (75,)
C       -1.1344486704    1.2118699904   -1.0403388517
C       -2.7691951795    1.6204531147   -3.8978407273
C       -3.6902668867    1.8495279093   -2.7033916721
C       -2.7964324329    0.6392739310   -2.7613011429
C        0.0159456416    0.5485439602   -0.3167183265
O       -1.5328761086    2.3387267112   -0.8215697485
O       -1.6318089409    0.3679185518   -1.9785253355
H       -3.1804262902    1.3141440056   -4.8553365615
H       -1.9032625231    2.2730237639   -3.9553029561
H       -3.4346234251    2.6586671889   -2.0356663165
H       -4.7530366356    1.6554423641   -2.8220316576
H       -3.2770109956   -0.3158591693   -2.9448802832
H       -0.3341746286   -0.3543098489    0.1921872786
H        0.4366866351    1.2449560017    0.4080752499
H        0.7839358693    0.2435960596   -1.0333040364
15   
torsion grid (90,)
C       -1.1335899147    0.5248861295   -1.2371997709
C       -3.5349624117    2.2848361892   -2.8847433160
C       -3.5169062067    0.7983617386   -3.1978730389
C       -2.2331861335    1.5847937148   -3.1710982634
C        0.0227165068    0.8122812972   -0.3052555122
O       -1.8554281489   -0.4482877807   -1.1649379215
O       -1.2318873586    1.5240894361   -2.1547381717
H       -3.9139228832    2.9911086993   -3.6179397846
H       -3.7142600273    2.5594098267   -1.8492785222
H       -3.7192778824    0.1105449076   -2.3899116727
H       -3.8537498049    0.4711694184   -4.1778247121
H       -1.7447836890    1.7874978554   -4.1187464106
H        0.9471445131    0.9295937123   -0.8777592069
H        0.1243210771   -0.0059202449    0.4071864139
H       -0.1532227070    1.7512098051    0.2279935726
15   
torsion grid (105,)
C       -1.0411643713    0.4634923316   -1.3668730928
C       -3.5002732874    2.3499540584   -2.9230804355
C       -3.5481186013    0.8419175361   -3.0559935997
C       -2.2373520003    1.5690648631   -3.1840562221
C       -0.0500884771    0.8074480920   -0.2782864458
O       -1.5620856511   -0.6212123497   -1.5183418171
O       -1.2453556349    1.5554803695   -2.1586545637
H       -3.8902979709    2.9762380386   -3.7205287492
H       -3.6099988551    2.7614234871   -1.9240503143
H       -3.7223779117    0.2592191118   -2.1613994756
H       -3.9554146611    0.4062521593   -3.9637744904
H       -1.7713653335    1.6344773033   -4.1623313242
H        0.8786506075    1.1792672823   -0.7203455560
H        0.1501612385   -0.0791888627    0.3226439279
H       -0.4526028756    1.6043766677    0.3540503719
15   
torsion grid (120,)
C       -0.9666747903    0.4583807363   -1.4442130738
C       -3.4901074772    2.3840487415   -2.9932848636
C       -3.5654437352    0.8712298577   -2.9628333032
C       -2.2433757439    1.5568468686   -3.1635858671
C       -0.0679651480    0.7734446458   -0.2712580527
O       -1.3364124135   -0.6500356832   -1.7679104230
O       -1.2948698703    1.6105024477   -2.1005823314
H       -3.8673162665    2.9226334789   -3.8579636261
H       -3.5938945845    2.9072270355   -2.0475068613
H       -3.7412644975    0.3938915364   -2.0061703772
H       -3.9855259073    0.3423518533   -3.8128882609
H       -1.7634081251    1.5012404911   -4.1360545129
H        0.8231680924    1.3064894876   -0.6149438379
H        0.2191655465   -0.1530575877    0.2251953912
H       -0.5891212900    1.4290371763    0.4327119933
15   
torsion grid (135,)
C       -0.9048541711    0.4629060791   -1.4884576100
C       -3.4846602700    2.4067643592   -3.0618653158
C       -3.6137516100    0.9018537823   -2.9094685450
C       -2.2664069672    1.5295795748   -3.1205904366
C       -0.0592054266    0.7398987236   -0.2683262907
O       -1.1355715466   -0.6326214737   -1.9548021959
O       -1.3753823875    1.6325215506   -2.0131327984
H       -3.8178698632    2.8782909056   -3.9817551417
H       -3.6039181953    3.0106280318   -2.1675628699
H       -3.8284218405    0.5158791568   -1.9186216013
H       -4.0290765814    0.3166787349   -3.7239657657
H       -1.7525039480    1.3725462516   -4.0642042318
H        0.7721170998    1.4003391649   -0.5315964685
H        0.3228686510   -0.1996397491    0.1298438208
H       -0.6559557743    1.2533816073    0.4913682368
15   
torsion grid (150,)
C       -0.8448246114    0.4692612559   -1.5124491545
C       -3.4708171867    2.4244220311   -3.1175575581
C       -3.6885370607    0.9373818696   -2.8808673731
C       -2.3035057082    1.4854800389   -3.0677670355
C       -0.0406590227    0.7219285561   -0.2599751540
O       -0.9308335903   -0.5903793660   -2.0974049595
O       -1.4687913594    1.6118132776   -1.9197012079
H       -3.7402843411    2.8511210059   -4.0790636533
H       -3.6004682795    3.0877138425   -2.2680094605
H       -3.9630666846    0.6296800101   -1.8768150735
H       -4.1027885473    0.3259766230   -3.6765221168
H       -1.7560298034    1.2416193020   -3.9727377474
H        0.7038442276    1.5018385124   -0.4446718229
H        0.4536294081   -0.1994758229    0.0464928273
H       -0.6962193720    1.0789260866    0.5398068063
15   
torsion grid (165,)
C       -0.7845437917    0.4697674533   -1.5277100359
C       -3.4451977557    2.4315491159   -3.1575805762
C       -3.7754028608    0.9723376312   -2.8657757236
C       -2.3504248139    1.4208059737   -3.0161283884
C       -0.0213335275    0.7124454494   -0.2480507606
O       -0.7207467057   -0.5322451741   -2.2101964292
O       -1.5627547528    1.5451500910   -1.8344799672
H       -3.6469771033    2.8295088722   -4.1475032112
H       -3.5678660991    3.1390932358   -2.3435256118
H       -4.1111955955    0.7337835227   -1.8614113440
H       -4.1997489580    0.3563436046   -3.6527116136
H       -1.7813456898    1.1018088340   -3.8825909183
H        0.6132262197    1.5972859300   -0.3533026800
H        0.5910127341   -0.1593454325   -0.0195558203
H       -0.7185522562    0.9056255073    0.5725128057
15   
torsion grid (180,)
C       -0.7200783360    0.4766546779   -1.5518789913
C       -3.4051017980    2.4331075611   -3.1918580855
C       -3.8579335708    1.0156456351   -2.8563632192
C       -2.3980769700    1.3470936755   -2.9783940795
C       -0.0060947347    0.7091096567   -0.2421227654
O       -0.5061266054   -0.4405146829   -2.3188304798
O       -1.6439996644    1.4512617882   -1.7725654741
H       -3.5467071324    2.8064375815   -4.2016252405
H       -3.4979104960    3.1784017994   -2.4080925694
H       -4.2401774091    0.8462522112   -1.8545478697
H       -4.3084093908    0.4046448767   -3.6329119664
H       -1.8282395418    0.9528196120   -3.8114941451
H        0.4930070303    1.6824158280   -0.2557508572
H        0.7257687838   -0.0821422571   -0.0825605738
H       -0.7277071044    0.7224447593    0.5799538547
