27   
torsion grid (-165,)
C        2.3694826365   -1.1788872213    6.3517398228
C       -1.5262678874   -1.6433810908   -2.0800589031
C        2.3188824787   -0.1809480832    5.3714063471
C        1.8340332839   -2.4415067135    6.0806129313
C       -0.9538720434   -2.8952575025   -1.8358361642
C       -1.1499676549   -0.5298963469   -1.3171318783
C        1.7261738130   -0.4326310619    4.1331398546
C        1.2622770987   -2.7097280782    4.8338411006
C       -0.0014454211   -3.0444548842   -0.8221604177
C       -0.2013694974   -0.6654912601   -0.3030060031
C        1.1988208611   -1.7021900730    3.8627152077
C        0.3556717088   -1.9256353249   -0.0687983662
N        0.5524944681   -1.9470361827    2.6032200253
O        2.1331067066   -3.4607474622    1.1451942437
O        2.4631651165   -0.9349082425    1.2391243892
S        1.5825447355   -2.1023747295    1.2254761470
H        2.8228440992   -0.9739259388    7.3177755125
H       -2.2647348916   -1.5316768828   -2.8695072526
H        2.7335546525    0.8027640039    5.5749330354
H        1.8725541939   -3.2246781905    6.8330106155
H       -1.2423646524   -3.7545279750   -2.4347329965
H       -1.5930580367    0.4421097635   -1.5148541647
H        1.6755135619    0.3375652809    3.3719134783
H        0.8720133825   -3.7006066799    4.6120365255
H        0.4690537261   -4.0018600534   -0.6216289200
H        0.1089409716    0.1859225024    0.2943908076
H       -0.0212043002   -2.7906612081    2.6404134573
27   
torsion grid (-150,)
C        2.2746472909   -0.9865170332    6.2959528764
C       -1.4999674361   -1.4605495442   -2.0208754646
C        2.0861199878   -0.0770124242    5.2485488562
C        1.9249672334   -2.3280272801    6.1173429204
C       -1.0203003361   -2.7634381363   -1.8585944779
C       -1.0353379331   -0.4268104830   -1.1968294879
C        1.5393213504   -0.4962240019    4.0351841098
C        1.4020470297   -2.7608204766    4.8955344901
C       -0.0746846425   -3.0440721145   -0.8666078056
C       -0.0927384967   -0.6933493129   -0.2034630971
C        1.1991471518   -1.8432713104    3.8564715358
C        0.3697060706   -2.0031112714   -0.0511892960
N        0.5929163043   -2.2689139257    2.6277718370
O        2.0450617895   -3.7318736393    1.0329647056
O        2.5267039746   -1.2343125385    1.3027463017
S        1.5863241826   -2.3501125280    1.2191206704
H        2.6907796446   -0.6519154675    7.2422962046
H       -2.2335063346   -1.2466199198   -2.7936290615
H        2.3558623930    0.9674600653    5.3803718526
H        2.0710878783   -3.0433741827    6.9222755242
H       -1.3756258889   -3.5612547672   -2.5047388446
H       -1.4050335154    0.5858621393   -1.3311775009
H        1.3822049428    0.2067937438    3.2247527621
H        1.1558357169   -3.8099068517    4.7465181928
H        0.3245727685   -4.0440571998   -0.7301635840
H        0.2854912058    0.0971477441    0.4371173893
H        0.1436479744   -3.1794317027    2.7254621095
27   
torsion grid (-135,)
C        2.0949878707   -0.8477631807    6.2393909289
C       -1.4698213428   -1.3094477913   -1.8822458205
C        1.7492328052   -0.0404836865    5.1492013119
C        2.0016947804   -2.2376999899    6.1257171551
C       -1.1619569002   -2.6610503578   -1.6958807460
C       -0.8086850259   -0.3248768020   -1.1380145842
C        1.3005364947   -0.6117527429    3.9582347053
C        1.5797391279   -2.8180727147    4.9262599425
C       -0.1964673373   -3.0379842482   -0.7577774268
C        0.1567322620   -0.6882827586   -0.1970485062
C        1.2198671966   -2.0054043550    3.8433103111
C        0.4427843480   -2.0432234807   -0.0164798166
N        0.7192344448   -2.5961734328    2.6392535537
O        2.0967096757   -3.8845615956    0.8949930352
O        2.6176151483   -1.4140636705    1.3611597874
S        1.6698855082   -2.5148831982    1.2035916688
H        2.4337289092   -0.3969052765    7.1681207893
H       -2.2194471121   -1.0213638394   -2.6143786793
H        1.8176367333    1.0410828820    5.2304463918
H        2.2710007943   -2.8744895089    6.9641613822
H       -1.6666820440   -3.4222312195   -2.2842425914
H       -1.0400980567    0.7250101653   -1.2945871617
H        1.0172283248    0.0126947126    3.1176894648
H        1.5338129649   -3.9006157897    4.8289526620
H        0.0733393893   -4.0792722287   -0.6131560415
H        0.6939162522    0.0620427841    0.3745159845
H        0.4689539338   -3.5758291066    2.7670001551
27   
torsion grid (-120,)
C        1.8894337298   -0.7388464295    6.1258045910
C       -1.4403970102   -1.1320686591   -1.6890971387
C        1.3842473763   -0.0692583959    5.0051232699
C        2.0635407952   -2.1251260316    6.0815986932
C       -1.2992149857   -2.5102774197   -1.4889238781
C       -0.5968119429   -0.2333504598   -1.0274490069
C        1.0430663228   -0.7778337034    3.8529001029
C        1.7503325677   -2.8372898433    4.9204635682
C       -0.3208773283   -2.9974942698   -0.6192717054
C        0.3861798810   -0.7067415604   -0.1542504896
C        1.2322690043   -2.1649106432    3.8065185882
C        0.5024947571   -2.0838956707    0.0417538441
N        0.8501626871   -2.8943835558    2.6376702502
O        2.1039300077   -4.0548686924    0.7653086821
O        2.7400084502   -1.6403275266    1.3779660587
S        1.7466147644   -2.6935622912    1.1810075179
H        2.1439463778   -0.1847025002    7.0250419238
H       -2.2023287638   -0.7593903959   -2.3684702411
H        1.2420867497    1.0078290474    5.0332875257
H        2.4580328332   -2.6540822475    6.9450568096
H       -1.9465302946   -3.2066194255   -2.0146693272
H       -0.6978310575    0.8352133886   -1.1958453188
H        0.6273367207   -0.2648117595    2.9913559517
H        1.9124170232   -3.9121134770    4.8770358201
H       -0.1833005299   -4.0633562927   -0.4674503085
H        1.0664059007   -0.0280523507    0.3507983413
H        0.7975775327   -3.8989481671    2.8003178085
27   
torsion grid (-105,)
C        1.6681505901   -0.6161260115    5.9308069058
C       -1.3831149689   -0.9221810543   -1.4733181405
C        0.9897547510   -0.1345844282    4.8051630878
C        2.1193663239   -1.9392964685    5.9531305110
C       -1.4040638087   -2.3074511715   -1.2679224406
C       -0.3827683126   -0.1368892490   -0.8916373849
C        0.7522439583   -0.9701536197    3.7130924575
C        1.9106814596   -2.7733034918    4.8513210621
C       -0.4292698711   -2.9134958755   -0.4734107543
C        0.5999562398   -0.7309764214   -0.0940161422
C        1.2207978394   -2.2901214909    3.7329549336
C        0.5554579081   -2.1113124108    0.1075053455
N        0.9552590751   -3.1431961027    2.6166711438
O        2.0581702922   -4.2279157206    0.6360184496
O        2.8744228961   -1.9002579809    1.3490159271
S        1.8039732613   -2.8748443117    1.1434697504
H        1.8416349939    0.0340699052    6.7838406545
H       -2.1441270125   -0.4565644930   -2.0938479912
H        0.6298311139    0.8906972170    4.7841973512
H        2.6492501134   -2.3206797815    6.8218773779
H       -2.1763975670   -2.9156789168   -1.7303717334
H       -0.3613054723    0.9357999590   -1.0627593088
H        0.1970859032   -0.6120695136    2.8511683253
H        2.2885084159   -3.7933429276    4.8558144593
H       -0.4207994532   -3.9872240119   -0.3149569148
H        1.3966401351   -0.1458422183    0.3543851203
H        1.0770898034   -4.1330221339    2.8284754761
27   
torsion grid (-90,)
C        1.4564304764   -0.4252233694    5.6744481437
C       -1.2310015455   -0.7107122469   -1.1503832919
C        0.4678400528   -0.2803400520    4.6949825609
C        2.2692751739   -1.5641406612    5.6806983510
C       -1.4251765560   -2.0923507848   -1.0241175823
C       -0.1233750473   -0.0951970911   -0.5585967650
C        0.2828303970   -1.2741914496    3.7307832803
C        2.1046229124   -2.5487666796    4.7034239640
C       -0.5158163383   -2.8644682049   -0.2992916448
C        0.7967199799   -0.8570169555    0.1679404999
C        1.1046440184   -2.4074121222    3.7339545229
C        0.5807712005   -2.2304673863    0.2894336501
N        0.8914738374   -3.4058015318    2.7238454149
O        1.8004775378   -4.5641964714    0.6887692841
O        2.9491042259   -2.4031946433    1.4383329651
S        1.7408578032   -3.2070223939    1.2418604788
H        1.5923687887    0.3440028698    6.4299341432
H       -1.9424928471   -0.1151508397   -1.7162607098
H       -0.1701884870    0.5994662111    4.6904193759
H        3.0422017482   -1.6783599108    6.4359640805
H       -2.2820644980   -2.5676881463   -1.4932831765
H        0.0289596568    0.9752524061   -0.6649862399
H       -0.4974556618   -1.1885655973    2.9805209054
H        2.7581379503   -3.4171591671    4.6812554183
H       -0.6426507070   -3.9375119881   -0.1962157665
H        1.6691611281   -0.4059569003    0.6294474498
H        1.0993217551   -4.3549926853    3.0363969917
27   
torsion grid (-75,)
C        1.2323215199   -0.3261931250    5.3755462909
C       -1.0910949704   -0.5361751297   -0.8169810852
C        0.1478451911   -0.4505199875    4.5003905271
C        2.2399076537   -1.2974925351    5.3816249495
C       -1.4268020296   -1.8938024052   -0.7316657012
C        0.1214221294   -0.0723113621   -0.2969014730
C        0.0631968138   -1.5477332889    3.6395782968
C        2.1707285657   -2.3859553410    4.5086513961
C       -0.5529971600   -2.7933837296   -0.1189566504
C        1.0069856236   -0.9624267645    0.3176993757
C        1.0753319561   -2.5146717284    3.6454685736
C        0.6502968891   -2.3087164130    0.3995611534
N        0.9558561034   -3.6229060237    2.7359315472
O        1.6640484666   -4.7790385349    0.6147266870
O        3.0522712021   -2.7822539899    1.3830685071
S        1.7556530636   -3.4490334949    1.2233997297
H        1.2925590318    0.5233712373    6.0506473668
H       -1.7759508461    0.1597825294   -1.2943073380
H       -0.6382191548    0.2998888636    4.4952272339
H        3.0869235780   -1.2000044824    6.0553657754
H       -2.3662369863   -2.2505787027   -1.1445698728
H        0.3797820333    0.9804595099   -0.3685824527
H       -0.7796133581   -1.6692232006    2.9661258618
H        2.9687110460   -3.1229557094    4.4800444253
H       -0.7897858428   -3.8501246108   -0.0443289104
H        1.9541937066   -0.6298269916    0.7292571723
H        1.2776767747   -4.5105939792    3.1256393945
27   
torsion grid (-60,)
C        1.0283625572   -0.2492336132    5.0776408417
C       -0.9159690801   -0.3826289908   -0.5425572186
C       -0.1057587168   -0.6301795189    4.3519683688
C        2.1810110874   -1.0419093668    5.0387028289
C       -1.3620075081   -1.7103529437   -0.5291934355
C        0.3519359082   -0.0556490534   -0.0502156735
C       -0.0915937382   -1.8039108554    3.5948144133
C        2.2048386196   -2.2083410636    4.2693868412
C       -0.5429530272   -2.7171729348   -0.0145904317
C        1.1821771266   -1.0540061462    0.4657720230
C        1.0637043135   -2.5925202791    3.5532316310
C        0.7159866620   -2.3688678754    0.4800984376
N        1.0419802819   -3.7861646758    2.7468183576
O        1.4920153208   -4.9400306417    0.5387397818
O        3.1161696096   -3.1243354490    1.2709985848
S        1.7469399015   -3.6498853618    1.1825011418
H        1.0143749907    0.6608341991    5.6716412343
H       -1.5576731367    0.3978399463   -0.9429610655
H       -1.0032943215   -0.0182118824    4.3805354766
H        3.0651043051   -0.7462555402    5.5972428820
H       -2.3435771471   -1.9607350778   -0.9218703850
H        0.6950779919    0.9749267770   -0.0659349143
H       -0.9640509787   -2.1182179988    3.0306437877
H        3.1073395311   -2.8094905240    4.2033140816
H       -0.8637572232   -3.7541490524    0.0033106385
H        2.1691563802   -0.8279028371    0.8552544884
H        1.4839561371   -4.5912199376    3.1944250023
27   
torsion grid (-45,)
C        0.8226792389   -0.1891188704    4.8150530500
C       -0.7494421660   -0.2562349770   -0.2810300091
C       -0.3080506018   -0.7989670251    4.2598824058
C        2.0704740909   -0.8151332195    4.7201157849
C       -1.3053341634   -1.5408331568   -0.3067878580
C        0.5643220973   -0.0599636522    0.1591902107
C       -0.1941459163   -2.0314002013    3.6134790492
C        2.1916992076   -2.0412195978    4.0598624690
C       -0.5518305835   -2.6361279156    0.1210975850
C        1.3299935304   -1.1467366471    0.5860811710
C        1.0567246195   -2.6492333967    3.5073376261
C        0.7526228280   -2.4172604117    0.5683506176
N        1.1375796958   -3.9028772762    2.8014000606
O        1.2628219237   -5.0516083816    0.5216965819
O        3.1204536431   -3.4369048855    1.1508155291
S        1.6978984776   -3.8124891624    1.1660634477
H        0.7316272617    0.7678884157    5.3220499516
H       -1.3404773671    0.5938655742   -0.6115424055
H       -1.2794952922   -0.3177800223    4.3346139333
H        2.9508393504   -0.3445280464    5.1498027853
H       -2.3214589950   -1.6896316976   -0.6613259952
H        0.9927749612    0.9381831245    0.1719629293
H       -1.0606430603   -2.5213152678    3.1809350422
H        3.1623565458   -2.5168235534    3.9482146343
H       -0.9575160053   -3.6430565786    0.1076295064
H        2.3504385700   -1.0215855223    0.9317214527
H        1.7405218233   -4.5834716614    3.2679217425
27   
torsion grid (-30,)
C        0.6670554974   -0.1698246988    4.6880641510
C       -0.6224460808   -0.2061943765   -0.1561537284
C       -0.4027088371   -0.9131457874    4.1757956972
C        1.9666380655   -0.6826931285    4.6183458155
C       -1.2514834765   -1.4558346970   -0.1851887030
C        0.7146734135   -0.0926456526    0.2422554433
C       -0.1779310217   -2.1636439306    3.5980718801
C        2.1989136552   -1.9235193781    4.0183450771
C       -0.5499014415   -2.5999673900    0.2020660216
C        1.4293613105   -1.2283184160    0.6255523775
C        1.1259382999   -2.6646760101    3.5048815136
C        0.7779288813   -2.4632851286    0.6102356765
N        1.3307802846   -3.9368710910    2.8703851523
O        1.0339914311   -5.1158895271    0.5918718249
O        3.1026810994   -3.6908920129    0.9809870202
S        1.6593287827   -3.9207016898    1.1554311927
H        0.4881514670    0.7999813308    5.1445725724
H       -1.1738639907    0.6821463826   -0.4526918630
H       -1.4152272677   -0.5231025052    4.2351417836
H        2.8009482226   -0.1122038994    5.0179408045
H       -2.2849752373   -1.5403292266   -0.5092821216
H        1.2004744235    0.8788489762    0.2552837386
H       -0.9998223422   -2.7575017311    3.2113117562
H        3.2108907904   -2.3108409484    3.9273514682
H       -1.0121055771   -3.5820787848    0.1865378985
H        2.4676457870   -1.1660386028    0.9327311863
H        2.1264486836   -4.4337610995    3.2757741132
27   
torsion grid (-15,)
C        0.5465720702   -0.1979548651    4.6784309773
C       -0.5366475950   -0.1479668436   -0.1233212829
C       -0.4637125976   -1.0236103554    4.1711046788
C        1.8801547503   -0.6133740836    4.6087932566
C       -1.2410814030   -1.3565388797   -0.1279691575
C        0.8166249383   -0.1160897482    0.2341608312
C       -0.1466323487   -2.2567921745    3.6007838127
C        2.2060542666   -1.8333992873    4.0102411621
C       -0.5996621813   -2.5404414097    0.2444184604
C        1.4714401488   -1.2925585661    0.5996312827
C        1.1923648886   -2.6573642469    3.5013070009
C        0.7458734637   -2.4860851786    0.6104475061
N        1.5015831887   -3.9095334418    2.8840947050
O        0.7330461975   -5.1287774370    0.7221072896
O        2.9811630408   -3.9388392969    0.7754507444
S        1.5557677971   -3.9934842736    1.1342984055
H        0.2955627235    0.7571193314    5.1316934521
H       -1.0413264517    0.7719233179   -0.4064775472
H       -1.5032486523   -0.7129135870    4.2322910584
H        2.6701754949    0.0183530616    5.0062593551
H       -2.2873690868   -1.3786526503   -0.4196418146
H        1.3613422001    0.8236856652    0.2280193380
H       -0.9254077865   -2.9151932115    3.2292752587
H        3.2456363915   -2.1421465456    3.9239823398
H       -1.1214682077   -3.4920583803    0.2509142377
H        2.5220092784   -1.2904695491    0.8698856933
H        2.4258548846   -4.2383336747    3.1676823705
27   
torsion grid (0,)
C        0.4140815962   -0.2571885860    4.7520449249
C       -0.4302803774   -0.1158903754   -0.1729850986
C       -0.5331883212   -1.1641078997    4.2623720046
C        1.7761855204   -0.5512817897    4.6359072968
C       -1.2153198181   -1.2709477414   -0.0970475074
C        0.9341782743   -0.1641148397    0.1371952404
C       -0.1268041738   -2.3578864693    3.6659014234
C        2.1908384639   -1.7298902880    4.0103895010
C       -0.6443300720   -2.4806965565    0.3059080321
C        1.5186848415   -1.3674813701    0.5328541882
C        1.2394098486   -2.6365408220    3.5223871614
C        0.7147473078   -2.5066344050    0.6202001521
N        1.6449620818   -3.8505776447    2.8946188174
O        0.4631877173   -5.1037615686    0.9478372060
O        2.8170647803   -4.1747337073    0.6549619513
S        1.4473646760   -4.0465463436    1.1702279030
H        0.0931938114    0.6657999345    5.2269228071
H       -0.8806611595    0.8240829556   -0.4806013518
H       -1.5939656338   -0.9489152352    4.3595308403
H        2.5194289204    0.1431368421    5.0187167582
H       -2.2711970979   -1.2317074944   -0.3497043679
H        1.5419511706    0.7336751458    0.0694879794
H       -0.8563798579   -3.0807328872    3.3139166086
H        3.2512969895   -1.9441003604    3.8938451843
H       -1.2298200674   -3.3916249114    0.3747784934
H        2.5775324670   -1.4257210793    0.7634878204
H        2.6357913113   -4.0359696840    3.0516258863
27   
torsion grid (15,)
C        0.2637145476   -0.3562111203    4.8368223897
C       -0.2767283540   -0.0522575619   -0.2638796032
C       -0.5988246843   -1.3626461297    4.3871492604
C        1.6408586671   -0.4851642881    4.6311364414
C       -1.1436323507   -1.1277529544   -0.0454698694
C        1.1003938258   -0.1997062035   -0.0591027126
C       -0.0936607997   -2.4926594064    3.7431737106
C        2.1518155128   -1.5988671642    3.9598888286
C       -0.6412210395   -2.3561916523    0.3910879891
C        1.6150102865   -1.4228166796    0.3723565234
C        1.2849560359   -2.6066208303    3.5158377362
C        0.7327902186   -2.4825494652    0.5969525241
N        1.7927464546   -3.7585032601    2.8496071202
O        0.2931826220   -5.0081978794    1.1492828890
O        2.6825220459   -4.3326060868    0.5552282981
S        1.3905976987   -4.0435225562    1.1874339306
H       -0.1328489651    0.5162984293    5.3484731403
H       -0.6733821337    0.9022333489   -0.5994438164
H       -1.6694090688   -1.2758600247    4.5526994880
H        2.3198227473    0.2882741170    4.9802925818
H       -2.2107062529   -1.0121754127   -0.2135624230
H        1.7718851088    0.6353340330   -0.2377264801
H       -0.7528695992   -3.2937712555    3.4223270429
H        3.2211113667   -1.6851240339    3.7773881501
H       -1.2913466445   -3.2069403979    0.5651840741
H        2.6820683823   -1.5581575190    0.5202918387
H        2.8098550794   -3.8102118218    2.8918850985
27   
torsion grid (30,)
C       -0.0537644046   -0.5295756337    4.8765936079
C        0.0383239450    0.0883570682   -0.2967525361
C       -0.7201239705   -1.7399560535    4.6524324215
C        1.2609110384   -0.3687499902    4.4273618547
C       -0.9111781530   -0.7745055598    0.2607051327
C        1.3725355575   -0.3150040116   -0.4249982045
C       -0.0782484340   -2.7881636505    3.9907305623
C        1.9006455979   -1.4042418081    3.7412269735
C       -0.5331972590   -2.0449526096    0.7011783151
C        1.7646250674   -1.5799947099    0.0176377304
C        1.2327054220   -2.6162772349    3.5261844418
C        0.8041859348   -2.4260032606    0.5779674027
N        1.8604569859   -3.6935853344    2.8278451255
O        0.1362831347   -4.8537077783    1.3150849679
O        2.5420477007   -4.4643275341    0.5226408087
S        1.3310345278   -4.0178901223    1.2162000567
H       -0.5531270306    0.2802655385    5.4013524378
H       -0.2628945187    1.0749784286   -0.6386412424
H       -1.7385611953   -1.8742256530    5.0072822547
H        1.7851399184    0.5679993656    4.5967992540
H       -1.9472754502   -0.4607673242    0.3518042701
H        2.1048082620    0.3517902522   -0.8716946856
H       -0.5747749401   -3.7394095620    3.8241621872
H        2.9118635332   -1.2684523534    3.3637700973
H       -1.2549092004   -2.7339115297    1.1254490597
H        2.7915954176   -1.9176636407   -0.0851151592
H        2.8728526950   -3.5846007851    2.7745541863
27   
torsion grid (45,)
C       -0.1943488452   -0.6934591383    5.0760363870
C        0.2042527195    0.1177120574   -0.4916632193
C       -0.7231142768   -1.9741927158    4.8766013603
C        1.0443053542   -0.3614157793    4.5181599909
C       -0.7513334930   -0.5894656244    0.2457659308
C        1.4666549845   -0.4382419067   -0.7304522714
C       -0.0193446233   -2.9241457310    4.1336926861
C        1.7426452580   -1.2971944337    3.7509255059
C       -0.4507022520   -1.8551036387    0.7547978786
C        1.7827042639   -1.6999583104   -0.2212871032
C        1.2136611968   -2.5807269881    3.5627126240
C        0.8175702341   -2.3898432694    0.5171758845
N        1.9163011363   -3.5518729156    2.7840356872
O        0.0178540210   -4.6954765214    1.5081989146
O        2.3817922774   -4.5489660528    0.5207902654
S        1.2573666147   -3.9654566619    1.2539710221
H       -0.7411549281    0.0380737764    5.6647028268
H       -0.0367294388    1.1008373821   -0.8872015093
H       -1.6813355113   -2.2412968603    5.3143614459
H        1.4618160875    0.6309240606    4.6661827897
H       -1.7323200422   -0.1581525789    0.4241743761
H        2.2017183791    0.1066726323   -1.3163047584
H       -0.4123802756   -3.9236967852    3.9798303109
H        2.6905829706   -1.0289544102    3.2893668448
H       -1.1809760478   -2.4231855137    1.3203083703
H        2.7506381387   -2.1557415421   -0.4071840517
H        2.8978074752   -3.3178550417    2.6404862350
27   
torsion grid (60,)
C       -0.2988509883   -0.8955289383    5.3715307884
C        0.3741240388    0.1282437369   -0.7838261750
C       -0.6750891483   -2.2284726052    5.1665958589
C        0.8179541680   -0.3811225926    4.7055661792
C       -0.5474866789   -0.3801733016    0.1381839816
C        1.5292418951   -0.5960116470   -1.1012011227
C        0.0611849032   -3.0518981956    4.3125127095
C        1.5436664086   -1.1896994124    3.8270675924
C       -0.3191590316   -1.6142712747    0.7516679647
C        1.7734073665   -1.8287939321   -0.4905294730
C        1.1706503081   -2.5272016287    3.6354293146
C        0.8437515888   -2.3200683490    0.4298425785
N        1.9201300827   -3.3648046017    2.7533784193
O       -0.0769038106   -4.4863793698    1.6376461381
O        2.2549202683   -4.5581234115    0.5658478634
S        1.1929716484   -3.8568818492    1.2867993083
H       -0.8694075869   -0.2646370252    6.0476872501
H        0.1890389276    1.0868396924   -1.2612234170
H       -1.5380209291   -2.6357576821    5.6867279496
H        1.1167414593    0.6528055753    4.8562178775
H       -1.4461557759    0.1809964976    0.3783915620
H        2.2362189605   -0.2053989755   -1.8279108464
H       -0.2150842202   -4.0883254877    4.1545377384
H        2.3931251895   -0.7821766979    3.2831182620
H       -1.0286835456   -2.0289735005    1.4598325938
H        2.6552379441   -2.4144313880   -0.7316497412
H        2.8588756485   -3.0236503616    2.5534007532
27   
torsion grid (75,)
C       -0.3288519759   -1.0951002016    5.6832769892
C        0.5332115839    0.1094073143   -1.0839453100
C       -0.5681691521   -2.4530497883    5.4407991063
C        0.6430116588   -0.4197342407    4.9384847087
C       -0.3715661549   -0.2233330134   -0.0689700154
C        1.5989665966   -0.7448028482   -1.3893715104
C        0.1624487993   -3.1427275797    4.4714948954
C        1.3588406577   -1.0949032947    3.9464200144
C       -0.2140283265   -1.4107385008    0.6494578786
C        1.7720704002   -1.9338641470   -0.6754365531
C        1.1261040170   -2.4588169256    3.7177807294
C        0.8617692473   -2.2480651321    0.3367115275
N        1.8828213642   -3.1556445415    2.7287840565
O       -0.1813160148   -4.2541828232    1.7337670138
O        2.1234294736   -4.5423418707    0.6420860802
S        1.1155442540   -3.7280065710    1.3189563279
H       -0.8927544410   -0.5692511502    6.4489587466
H        0.4030915168    1.0322266092   -1.6429614586
H       -1.3182160195   -2.9844290273    6.0204953997
H        0.8353294054    0.6347858636    5.1176370819
H       -1.2028157945    0.4376201817    0.1602053790
H        2.2913778741   -0.4902433469   -2.1870537355
H       -0.0077295592   -4.1970280702    4.2869467509
H        2.0941726150   -0.5649381919    3.3449300497
H       -0.9147468765   -1.6921870520    1.4288451405
H        2.5826960460   -2.6190571139   -0.9031123599
H        2.7765988265   -2.7317456655    2.4897073966
27   
torsion grid (90,)
C        1.2031378465   -2.7676244361    5.5571424045
C       -1.2477177668   -2.7993560554   -1.3651001150
C        2.1342250856   -1.7247325247    5.4999933136
C        0.2395939465   -2.8958776559    4.5507968842
C       -0.2403401922   -3.4820233442   -0.6757753641
C       -1.2781433608   -1.3988252136   -1.3723567909
C        2.1136781293   -0.8208067771    4.4349642844
C        0.1985924125   -1.9796702396    3.4970516224
C        0.7424126024   -2.7674057007    0.0156868393
C       -0.3046195279   -0.6731348439   -0.6837974208
C        1.1388803499   -0.9442408912    3.4378939495
C        0.6897091452   -1.3727387986    0.0038686029
N        1.0710722912   -0.0239558576    2.3374673570
O        3.0300831615   -1.3682287377    1.2211889225
O        2.1635425455    0.8330787194    0.2446938707
S        1.9300423233   -0.4529086458    0.9104850685
H        1.2278074160   -3.4746054544    6.3820699957
H       -2.0085247754   -3.3583573023   -1.9034314196
H        2.8877542142   -1.6241974115    6.2764778057
H       -0.4904284001   -3.6998410346    4.5940483898
H       -0.2145997109   -4.5681813240   -0.6790586706
H       -2.0573346049   -0.8731078798   -1.9171524079
H        2.8586150605   -0.0319268010    4.3672306333
H       -0.5604164255   -2.0499083807    2.7237737273
H        1.5405306949   -3.2717274262    0.5507160940
H       -0.3042791770    0.4122763134   -0.6833543354
H        1.3851523064    0.9179836948    2.5743105292
27   
torsion grid (105,)
C        1.4216388476   -2.6175773915    5.8409706392
C       -1.3583458294   -2.5782060408   -1.6719969676
C        2.0274832581   -1.3591733831    5.7755495242
C        0.7176018643   -3.1062168764    4.7342710425
C       -0.4679082320   -3.4195638224   -0.9975142246
C       -1.2311912608   -1.1869224121   -1.5727432093
C        1.9466958741   -0.5988011042    4.6057488737
C        0.6085316994   -2.3392762276    3.5736288566
C        0.5524926054   -2.8742538822   -0.2124354819
C       -0.2169495911   -0.6298091477   -0.7919563478
C        1.2308979697   -1.0860535414    3.5056161333
C        0.6566646531   -1.4856970719   -0.1174777642
N        1.0969287099   -0.3028192406    2.3171281663
O        2.8985619761   -1.8502061989    1.2264355399
O        2.3743522204    0.4869740054    0.3021413170
S        1.9526087627   -0.7831907178    0.9033647139
H        1.4954981112   -3.2122212478    6.7473150600
H       -2.1492676040   -3.0058508087   -2.2823592656
H        2.5782858196   -0.9735104289    6.6292767437
H        0.2381039581   -4.0804389216    4.7810518849
H       -0.5613025857   -4.4983829769   -1.0861680448
H       -1.9185134305   -0.5367894568   -2.1068224639
H        2.4439216190    0.3666345038    4.5433503237
H        0.0355216130   -2.6980095230    2.7237337638
H        1.2661087175   -3.5050969311    0.3080779233
H       -0.0937790179    0.4457932920   -0.7147396294
H        1.3212571322    0.6820415155    2.4551696193
27   
torsion grid (120,)
C        1.6434180485   -2.4741835227    5.9894629187
C       -1.3846561181   -2.4528338893   -1.9551572431
C        1.9816010591   -1.1277648714    5.8259031436
C        1.0925013488   -3.1838896714    4.9159439238
C       -0.6700061842   -3.3724449099   -1.1800184116
C       -1.0921038309   -1.0862011025   -1.8771916384
C        1.7858400569   -0.4978923283    4.5936533961
C        0.8680771931   -2.5536111329    3.6918635982
C        0.3344993763   -2.9304046062   -0.3149256616
C       -0.0904076881   -0.6309226689   -1.0167766667
C        1.2215450217   -1.2082442108    3.5266499802
C        0.6027947940   -1.5625094195   -0.2415656925
N        0.9602327800   -0.5543425083    2.2826093759
O        2.7341145855   -2.1218274636    1.2186397013
O        2.3939433556    0.2790588875    0.3643181364
S        1.8729078113   -0.9888943512    0.8875119723
H        1.8063874365   -2.9664103422    6.9442660918
H       -2.1638717890   -2.8016587383   -2.6275509426
H        2.4128362680   -0.5683286514    6.6517775440
H        0.8230198491   -4.2297698623    5.0368911114
H       -0.8882303198   -4.4342242248   -1.2534681080
H       -1.6389663717   -0.3754055790   -2.4904166052
H        2.0753461303    0.5419525754    4.4583286225
H        0.4171446908   -3.0943451508    2.8656502598
H        0.9167825260   -3.6292546103    0.2774587667
H        0.1642291631    0.4225226183   -0.9580768538
H        1.0169068496    0.4607275936    2.3514621575
27   
torsion grid (135,)
C        1.8626295124   -2.3704945186    6.1053661055
C       -1.3768200778   -2.2762323937   -2.1618323559
C        1.9356646618   -0.9958643665    5.8631764866
C        1.4587083515   -3.2331494815    5.0794924857
C       -0.8559747198   -3.2555662643   -1.3074557142
C       -0.9205578191   -0.9562910342   -2.0842230462
C        1.6214162254   -0.4862378352    4.6002576547
C        1.1164624559   -2.7296210032    3.8243827165
C        0.1168699936   -2.9162209636   -0.3651187180
C        0.0540314327   -0.6040981151   -1.1459017218
C        1.2027802126   -1.3526754204    3.5820185644
C        0.5521320716   -1.5911271749   -0.2941593984
N        0.8114640318   -0.8252676775    2.3100581259
O        2.5961068253   -2.3308224259    1.2213554123
O        2.3820130290    0.1279490329    0.5142356807
S        1.7887610622   -1.1490391765    0.9273930636
H        2.1178742294   -2.7670203432    7.0842273521
H       -2.1328828223   -2.5449895185   -2.8946957650
H        2.2515806468   -0.3177234321    6.6514091837
H        1.3980174405   -4.3029560549    5.2608678530
H       -1.2021600752   -4.2828885491   -1.3790052728
H       -1.3166682026   -0.2013460073   -2.7576181131
H        1.7049499597    0.5805262020    4.4037849515
H        0.7881602369   -3.3942213088    3.0323867757
H        0.5469249679   -3.6655955378    0.2919185287
H        0.4377668220    0.4092834882   -1.0841397879
H        0.6730198749    0.1840792671    2.3385714323
27   
torsion grid (150,)
C        2.0330313477   -2.2577314058    6.1703427698
C       -1.4178758737   -2.1529705903   -2.3002243253
C        1.8441873849   -0.9083947444    5.8581825513
C        1.7718233168   -3.2348269468    5.2024070906
C       -1.1058140292   -3.1456602058   -1.3616370894
C       -0.7913692680   -0.9048138869   -2.2427965274
C        1.4091110745   -0.5365125278    4.5831452014
C        1.3116744526   -2.8729895932    3.9358892398
C       -0.1697809253   -2.8931269927   -0.3585336368
C        0.1495146129   -0.6392585594   -1.2420977513
C        1.1322527546   -1.5192528550    3.6236500045
C        0.4415370720   -1.6375159023   -0.3125060835
N        0.6149389718   -1.1469044174    2.3385519480
O        2.4573465697   -2.5086775847    1.1900842777
O        2.2698511885   -0.0101698652    0.6768474295
S        1.6521091545   -1.3090962112    0.9686582337
H        2.3811295517   -2.5462482723    7.1584102181
H       -2.1474816732   -2.3566672239   -3.0794428326
H        2.0478693180   -0.1414166564    6.6006349108
H        1.9169232847   -4.2857852228    5.4379327068
H       -1.5899003093   -4.1167956450   -1.4142703618
H       -1.0282115406   -0.1393832824   -2.9765059744
H        1.2886476396    0.5148408424    4.3307929934
H        1.0991374056   -3.6268213477    3.1860002894
H        0.0902771030   -3.6540790753    0.3705516217
H        0.6606084997    0.3164845383   -1.1844498104
H        0.2682721445   -0.1871270844    2.3356158136
27   
torsion grid (165,)
C        2.1213958508   -2.0578837744    6.2536765545
C       -1.4255988605   -1.9470041040   -2.3425623863
C        1.7321489804   -0.7756901812    5.8550999882
C        1.9979894604   -3.1285811489    5.3604105103
C       -1.2242455771   -3.0071132986   -1.4485499006
C       -0.7037813854   -0.7578053197   -2.2041934520
C        1.2334883556   -0.5624323208    4.5670433496
C        1.4766380290   -2.9290887965    4.0812250302
C       -0.3014830258   -2.8804561884   -0.4098051564
C        0.2242567187   -0.6173644608   -1.1668870009
C        1.0961368703   -1.6407064598    3.6834892206
C        0.4063776385   -1.6819566225   -0.2836744505
N        0.5200700923   -1.4429495229    2.3821182823
O        2.3528690227   -2.7667096898    1.1898043323
O        2.3000118659   -0.2387870835    0.8667261931
S        1.6039180231   -1.5196867274    1.0397808044
H        2.5183233528   -2.2219878613    7.2518066091
H       -2.1447939398   -2.0518321991   -3.1505366955
H        1.8285256181    0.0629688125    6.5394387732
H        2.2993397791   -4.1275663644    5.6641664263
H       -1.7835946522   -3.9313271607   -1.5632802349
H       -0.8574233001    0.0592532317   -2.9035074123
H        0.9575973081    0.4395429100    4.2456513065
H        1.3701575463   -3.7545168252    3.3865062649
H       -0.1265015268   -3.6923633690    0.2889920941
H        0.8067390190    0.2903191382   -1.0444106764
H        0.0427527560   -0.5424093664    2.3238702597
27   
torsion grid (180,)
C        2.1865466356   -1.8386633040    6.2559972400
C       -1.4477050904   -1.7327333349   -2.3528433417
C        1.6176316241   -0.6572091870    5.7708402863
C        2.2024803413   -2.9825788703    5.4494806289
C       -1.3131570007   -2.8816645540   -1.5624834581
C       -0.6574837718   -0.6056342319   -2.1063866494
C        1.0776640718   -0.6156421107    4.4825864551
C        1.6415229962   -2.9567480690    4.1714555338
C       -0.3877730061   -2.9076337457   -0.5181441677
C        0.2724084476   -0.6166777158   -1.0618202415
C        1.0796902913   -1.7679300913    3.6865710111
C        0.3872870468   -1.7686491320   -0.2822628703
N        0.4731615488   -1.7567428987    2.3834727802
O        2.2467254671   -3.0980815917    1.1171152700
O        2.3692936197   -0.5611657616    0.9887196010
S        1.5803495126   -1.7973251974    1.0540759023
H        2.6149991343   -1.8678841151    7.2541568968
H       -2.1682734533   -1.7192698178   -3.1662559151
H        1.6059138520    0.2376171997    6.3873888299
H        2.6436212078   -3.9038050879    5.8206852023
H       -1.9252661868   -3.7565520249   -1.7626382028
H       -0.7594629620    0.2798058582   -2.7275162273
H        0.6622667188    0.3111769808    4.0929269587
H        1.6405071823   -3.8395304142    3.5417487237
H       -0.2603662529   -3.7899943683    0.1010415094
H        0.9074400294    0.2392600886   -0.8558494265
H       -0.0998661857   -0.9203658865    2.2594734996
