18   
torsion grid (-165,)
C       -0.3168119931    0.0156805050    2.7184427273
C       -0.5968010154    1.0306721141    3.5812637196
C       -0.2136115783    0.6741438367    1.4499285448
C        0.5956236331   -1.2769734876    0.0399871436
C       -0.9638283909    0.4684387481   -1.0258802504
C        0.3919090234    1.0833818950   -1.0256026441
C        0.0384386494    0.1037439063    0.0973243570
N       -0.4200430791    1.9741797615    1.5676306854
O        0.6191709448   -2.0801793174    0.9556606518
O       -0.6685953449    2.2064077729    2.9226778093
O        1.0936517536   -1.5912742227   -1.1897087206
H       -0.1893074374   -1.0344751626    2.9246631022
H       -0.7645904775    1.0769413639    4.6493629291
H       -1.8052796040    1.0683475524   -0.6963050692
H       -1.1828222095   -0.3090016127   -1.7501244212
H        1.1124084028    0.7391128650   -1.7572886868
H        0.4811121983    2.1158954030   -0.7081624329
H        1.3859866919   -2.5202680261   -1.1256427967
18   
torsion grid (-150,)
C       -0.3858414405   -0.0190148824    2.7111734252
C       -0.5891793554    0.9971583900    3.5935597924
C       -0.1952122825    0.6565870863    1.4619865937
C        0.5933667823   -1.2966352680    0.0564987162
C       -1.0069290387    0.4107028579   -0.9948805838
C        0.3381886939    1.0584411328   -1.0284072304
C        0.0303195787    0.0868121670    0.1045135258
N       -0.2820427855    1.9667828060    1.6067274461
O        0.4105267424   -2.1636992561    0.8921725683
O       -0.5379527418    2.1894116910    2.9628489108
O        1.3564816756   -1.5230255128   -1.0475177827
H       -0.3658551898   -1.0818708983    2.8913418504
H       -0.7755377199    1.0343856205    4.6589644845
H       -1.8591868865    0.9922442811   -0.6594004887
H       -1.2247177937   -0.3777145591   -1.7087055356
H        1.0487809869    0.7250231143   -1.7744301602
H        0.4075246989    2.0983507601   -0.7313199050
H        1.6190358222   -2.4623985822   -0.9998419958
18   
torsion grid (-135,)
C       -0.6686267833   -0.6462440637    2.6154559201
C       -0.8802176719    0.1672429173    3.6858966700
C       -0.2334769702    0.2566069674    1.5916860389
C        0.6304525161   -1.4216603798   -0.0793454607
C       -0.7924668821    0.5410983193   -0.9289352870
C        0.5752646989    1.1118812735   -0.7039389320
C        0.1131492216   -0.0368436776    0.1732914181
N       -0.1944867540    1.5011107446    2.0308595463
O        0.1501257014   -2.4398728471    0.3842265557
O       -0.6128354077    1.4508862656    3.3648205563
O        1.7243865064   -1.4486843010   -0.8846888225
H       -0.7947325120   -1.7148170720    2.5373047647
H       -1.2086014900   -0.0063240011    4.7024083883
H       -1.6559159866    1.0959340896   -0.5766436817
H       -0.9628750570   -0.0794994037   -1.8037596325
H        1.3476516130    0.8894573389   -1.4302752842
H        0.6495122886    2.0746052822   -0.2118966208
H        1.9443370984   -2.3929293621   -1.0057340189
18   
torsion grid (-120,)
C       -0.6617391133   -0.6497118836    2.5670067725
C       -0.7987944974    0.1312305719    3.6732221561
C       -0.1739449890    0.2611535733    1.5748842233
C        0.6453754352   -1.3998496319   -0.1133156690
C       -0.8180160129    0.5654108530   -0.9183668138
C        0.5638301213    1.1336491633   -0.7429602056
C        0.1255311269   -0.0116379933    0.1421097938
N       -0.0349093655    1.4793472681    2.0623227775
O        0.0506971824   -2.4231527470    0.1696810431
O       -0.4392540745    1.4035646517    3.4005923008
O        1.8835209788   -1.4149573503   -0.6687758843
H       -0.8703956508   -1.7020357226    2.4468143821
H       -1.1274065444   -0.0593413662    4.6866240375
H       -1.6650568985    1.1280026731   -0.5393451976
H       -1.0237144604   -0.0528690368   -1.7872320258
H        1.3079428272    0.9082455482   -1.4985124792
H        0.6629284232    2.0994540734   -0.2612054538
H        2.1139775007   -2.3569253830   -0.7906506295
18   
torsion grid (-105,)
C       -0.7413240796   -0.5987596802    2.5570640460
C       -0.8551905268    0.1963176701    3.6559246919
C       -0.2420721733    0.2918516884    1.5524973814
C        0.5680043346   -1.4096774476   -0.0827400690
C       -0.9276265524    0.5215890637   -0.9316507652
C        0.4609905312    1.0967549334   -0.8060382561
C        0.0350278747   -0.0151544129    0.1228425786
N       -0.0733133644    1.5115637672    2.0247871319
O       -0.0939413853   -2.4254731891    0.0130265437
O       -0.4701357559    1.4573201397    3.3672538084
O        1.8990989240   -1.4315486592   -0.3430617758
H       -0.9770042896   -1.6475151449    2.4506870756
H       -1.1815101569    0.0234813815    4.6732416221
H       -1.7646117268    1.1045683302   -0.5612045662
H       -1.1518848163   -0.1273219684   -1.7729591745
H        1.1892520512    0.8429957491   -1.5690463826
H        0.5734287926    2.0804496740   -0.3647739696
H        2.1452607006   -2.3734338281   -0.4308850364
18   
torsion grid (-90,)
C       -0.7039599986   -0.6013250572    2.5443666769
C       -0.8022538029    0.1854983404    3.6507424330
C       -0.2273970574    0.2982230190    1.5368025145
C        0.5541236354   -1.3983362592   -0.1149353005
C       -0.9602240221    0.5351120233   -0.9280082532
C        0.4362667210    1.1010036390   -0.8396633985
C        0.0194492998   -0.0053767103    0.1019782324
N       -0.0562824944    1.5150880610    2.0142911136
O       -0.1250245985   -2.3940125244   -0.2733334917
O       -0.4309171628    1.4504516630    3.3631588923
O        1.9099019815   -1.4381662266   -0.0783760028
H       -0.9398049468   -1.6505755672    2.4383451549
H       -1.1098861960    0.0039040684    4.6723270981
H       -1.7812032581    1.1314935705   -0.5435367520
H       -1.2094288798   -0.1174193271   -1.7590768401
H        1.1442082278    0.8387813606   -1.6194207299
H        0.5705401253    2.0842803191   -0.4031656652
H        2.1613663413   -2.3763349204   -0.1866170316
18   
torsion grid (-75,)
C       -0.6778102569   -0.6026515193    2.5381012293
C       -0.7788703722    0.1877414168    3.6416850147
C       -0.2219241955    0.2977257935    1.5220817041
C        0.5537001666   -1.3918460595   -0.1590909265
C       -0.9852472831    0.5308554435   -0.9279705758
C        0.4117218098    1.0952792593   -0.8699023518
C        0.0085061215   -0.0091380014    0.0863527724
N       -0.0650141935    1.5189469535    1.9929054485
O       -0.0716065774   -2.3358817992   -0.6006526688
O       -0.4283670154    1.4562105980    3.3452456087
O        1.8679975759   -1.4775550137    0.1707793292
H       -0.8995656872   -1.6563884572    2.4437391746
H       -1.0753472546    0.0061649621    4.6665544838
H       -1.7960959346    1.1336811362   -0.5325471278
H       -1.2489379436   -0.1287729194   -1.7484285087
H        1.1045386645    0.8284183087   -1.6619327420
H        0.5602999854    2.0774309509   -0.4352422233
H        2.1342036380   -2.4036515878    0.0094531159
18   
torsion grid (-60,)
C       -0.6072595785   -0.5704602249    2.5158758076
C       -0.7715842000    0.2407461187    3.5963130432
C       -0.2628307105    0.3384498482    1.4644666462
C        0.5005977415   -1.3534690698   -0.2510161255
C       -1.0274550448    0.5787874210   -0.9808087298
C        0.3727113103    1.1220260769   -0.9365011347
C       -0.0376262354    0.0204354427    0.0313641692
N       -0.2240718771    1.5837265575    1.8960057562
O       -0.0183913740   -2.1904391362   -0.9637590687
O       -0.5561024988    1.5279515070    3.2562998997
O        1.7039364001   -1.5535095704    0.3489597151
H       -0.7127519922   -1.6448545900    2.4641461688
H       -1.0299007272    0.0618446708    4.6318956414
H       -1.8221182716    1.1951535731   -0.5742861602
H       -1.3050775231   -0.0822495535   -1.7949693481
H        1.0552560363    0.8418643682   -1.7328818855
H        0.5424854727    2.0988064399   -0.4971058439
H        1.9825776715   -2.4592582224    0.1122496150
18   
torsion grid (-45,)
C       -0.5749327513   -0.5735279816    2.5347695032
C       -0.7472530234    0.2448406433    3.6081820911
C       -0.2459070677    0.3288329890    1.4727564612
C        0.5355290837   -1.3388059661   -0.2855828011
C       -1.0402832635    0.5639708083   -0.9619032337
C        0.3482698744    1.1244066070   -0.9375390047
C       -0.0300173339    0.0095977082    0.0386176383
N       -0.2244720092    1.5785544006    1.8930386385
O        0.1814207549   -2.0539554433   -1.2037113158
O       -0.5504157224    1.5317670335    3.2547460449
O        1.5806571498   -1.6617933991    0.5225504782
H       -0.6560891834   -1.6501355246    2.4961714391
H       -0.9983303641    0.0719602530    4.6465635870
H       -1.8368409553    1.1644946066   -0.5360818252
H       -1.3169489576   -0.0989569269   -1.7744178938
H        1.0240218859    0.8518833544   -1.7419307788
H        0.5136415364    2.0983101987   -0.4905188365
H        1.9015667261   -2.5323363993    0.2174152088
18   
torsion grid (-30,)
C       -0.5812290711   -0.5991496414    2.4638277681
C       -0.7785324661    0.2249296787    3.5282506196
C       -0.2533275927    0.2992215870    1.3976761424
C        0.6051523896   -1.3257396336   -0.3878554678
C       -1.0544414950    0.5044247034   -1.0395998734
C        0.3034971272    1.1232867252   -1.0097008107
C       -0.0213089026   -0.0164401125   -0.0353482386
N       -0.2581387078    1.5526006080    1.8089549038
O        0.4549824225   -1.9113160118   -1.4445769916
O       -0.5982756524    1.5123553634    3.1667111663
O        1.4500552669   -1.7820819886    0.5756233963
H       -0.6388014667   -1.6770024496    2.4340224862
H       -1.0375906352    0.0563328826    4.5653712501
H       -1.8773423004    1.0623280188   -0.6059722650
H       -1.2970761573   -0.1657583900   -1.8569024232
H        0.9919264626    0.8792563157   -1.8118424704
H        0.4257032591    2.0989052479   -0.5532250713
H        1.8321997431   -2.6102792811    0.2262071442
18   
torsion grid (-15,)
C       -0.6053261291   -0.5960691369    2.4865860236
C       -0.7506492563    0.2253023782    3.5610539339
C       -0.2165331921    0.2924043028    1.4322790825
C        0.6644015202   -1.2928176248   -0.3910692933
C       -1.0757793489    0.4722158139   -0.9925444040
C        0.2538479062    1.1439553234   -0.9785523499
C       -0.0013979539   -0.0150805980   -0.0059347753
N       -0.1422611015    1.5384730529    1.8596168589
O        0.6918477143   -1.7456335270   -1.5216359411
O       -0.4852330494    1.5031195119    3.2161923947
O        1.2968328045   -1.9061858505    0.6448844381
H       -0.7309612658   -1.6673115268    2.4417126640
H       -1.0224362223    0.0610726647    4.5956258724
H       -1.9156706958    0.9868751803   -0.5380278638
H       -1.3025678419   -0.2018755549   -1.8113018259
H        0.9382712007    0.9283115459   -1.7915664529
H        0.3424882958    2.1206897221   -0.5176151598
H        1.7172860859   -2.7016705191    0.2646798144
18   
torsion grid (0,)
C       -0.6257547824   -0.5902076420    2.4623684879
C       -0.7604746959    0.2335309515    3.5362543402
C       -0.2087062378    0.2895470422    1.4110723799
C        0.7380709627   -1.2607407068   -0.4181267220
C       -1.0838115181    0.4142979291   -1.0195601600
C        0.2079331311    1.1543428286   -0.9969495291
C        0.0172689945   -0.0152282014   -0.0271268568
N       -0.1112560795    1.5338373758    1.8403049123
O        0.9659165877   -1.5919144477   -1.5681569733
O       -0.4640266484    1.5054393824    3.1939602895
O        1.1306270111   -2.0217551688    0.6384370752
H       -0.7743920989   -1.6580010453    2.4144810460
H       -1.0436049141    0.0751411795    4.5687053312
H       -1.9536392877    0.8773241151   -0.5653647034
H       -1.2714663245   -0.2698089810   -1.8401560547
H        0.9054362205    0.9741708103   -1.8070191895
H        0.2391699538    2.1349962661   -0.5375641564
H        1.5969465367   -2.7881110450    0.2518365618
18   
torsion grid (15,)
C        0.8491495668    0.2026811690    2.4768558676
C        0.2424792747    0.7693301961    3.5544021499
C       -0.1183914362    0.3461689985    1.4302450047
C        0.7328426495   -1.2537881490   -0.3943210237
C       -1.1099762779    0.3958906480   -0.9724502064
C        0.1692722008    1.1588798458   -1.0001736841
C        0.0137622853   -0.0056380763   -0.0078437504
N       -1.2068183798    0.9523768056    1.8645977341
O        1.0909816312   -1.5237975506   -1.5269305337
O       -0.9817685673    1.2280779790    3.2182923656
O        0.9208572170   -2.1124306628    0.6433497448
H        1.8207171585   -0.2650491854    2.4254357710
H        0.5355453612    0.9148259885    4.5859645041
H       -1.9783283097    0.8460072225   -0.5058770991
H       -1.3011639348   -0.3006443646   -1.7812898314
H        0.8526740881    0.9861249446   -1.8243777525
H        0.1881828035    2.1455363172   -0.5495898831
H        1.3641713825   -2.8950224473    0.2623543611
18   
torsion grid (30,)
C        0.8380295533    0.1806596869    2.4557746223
C        0.2565020686    0.7913959015    3.5233917303
C       -0.1059177134    0.3803956884    1.3973233135
C        0.7927147593   -1.2207039792   -0.3896864738
C       -1.1195349699    0.3426297131   -1.0021721430
C        0.1300127975    1.1581334255   -1.0444893492
C        0.0252590994    0.0107295548   -0.0355994179
N       -1.1592068668    1.0554174618    1.8156337446
O        1.3593902664   -1.4111504811   -1.4502663451
O       -0.9315188889    1.3252942674    3.1704701025
O        0.7328923869   -2.1751725271    0.5776277609
H        1.7796497472   -0.3466112742    2.4192260563
H        0.5464780195    0.9237367295    4.5575808461
H       -2.0048838880    0.7630083700   -0.5390252993
H       -1.2880781708   -0.3728084408   -1.8000301767
H        0.8190679167    1.0018610027   -1.8671976876
H        0.1029006995    2.1540028616   -0.6154841619
H        1.2248650531   -2.9426515607    0.2269700537
18   
torsion grid (45,)
C        0.8141167812    0.1891450594    2.5251209674
C        0.2246774199    0.7774150449    3.6012864199
C       -0.1330248372    0.3908906060    1.4703182243
C        0.8416185866   -1.1691000252   -0.2903722200
C       -1.1437073933    0.3058403080   -0.9310902924
C        0.0730150408    1.1781285981   -0.9692798052
C        0.0086630490    0.0319768506    0.0363130398
N       -1.1960249586    1.0441909938    1.8970884422
O        1.6273219542   -1.2566869501   -1.2149209508
O       -0.9702681389    1.2996033595    3.2559360215
O        0.5615328677   -2.2215238681    0.5242812104
H        1.7661833726   -0.3195098444    2.4804249986
H        0.5139957888    0.9007708936    4.6367776557
H       -2.0508543696    0.6895385808   -0.4777378099
H       -1.2825121421   -0.4140034632   -1.7314144824
H        0.7740255379    1.0535393325   -1.7873547156
H       -0.0038694972    2.1740755904   -0.5466314809
H        1.1221770829   -2.9599796008    0.2172031993
18   
torsion grid (60,)
C        0.8284753751    0.2194807515    2.5061138110
C        0.2408793762    0.7965806793    3.5896528241
C       -0.1323317949    0.4102978997    1.4617776322
C        0.8727236336   -1.1471259151   -0.2572026463
C       -1.1543374575    0.2834094809   -0.9310013536
C        0.0531255607    1.1759382013   -0.9877298015
C        0.0033076433    0.0442453956    0.0288572716
N       -1.2010666151    1.0460844110    1.8999107983
O        1.8497365435   -1.1611796235   -0.9803414611
O       -0.9645720066    1.3019842388    3.2573093899
O        0.4021535344   -2.2680303268    0.3510072975
H        1.7920380397   -0.2665618173    2.4480971765
H        0.5391602501    0.9232645394    4.6222074068
H       -2.0664750511    0.6647872269   -0.4855084226
H       -1.2898534546   -0.4467895633   -1.7229041593
H        0.7528005521    1.0532747810   -1.8076322889
H       -0.0372529220    2.1786576617   -0.5839221968
H        1.0146230425   -2.9899180979    0.1104657745
18   
torsion grid (75,)
C        0.8940907404    0.2605147453    2.5276837833
C        0.2902232196    0.7734949424    3.6344909934
C       -0.1190746305    0.3538953985    1.5199211847
C        0.8777854994   -1.2127672683   -0.1636413901
C       -1.1524025739    0.2366811435   -0.8628017514
C        0.0719427584    1.1137417441   -0.9348133293
C        0.0043649500   -0.0107298935    0.0845048803
N       -1.2302865160    0.8774769256    1.9981945748
O        2.0061058481   -1.1922433154   -0.6149266525
O       -0.9710733720    1.1560818108    3.3472582019
O        0.2489531969   -2.3671621785    0.1761672317
H        1.9018397286   -0.1170846755    2.4261825353
H        0.6110898955    0.9305208501    4.6560651860
H       -2.0575958915    0.6390546197   -0.4219712315
H       -1.3048765310   -0.4943162545   -1.6507821950
H        0.7631696473    0.9798931474   -1.7607003029
H        0.0008080589    2.1228943643   -0.5426373783
H        0.8869747569   -3.0886961417    0.0122637454
18   
torsion grid (90,)
C        0.9069719774    0.2831974819    2.5338222759
C        0.3047234001    0.7920645328    3.6434009883
C       -0.1164397143    0.3588972133    1.5346280830
C        0.8834199190   -1.2163470304   -0.1195047246
C       -1.1701256448    0.2191427290   -0.8323802320
C        0.0549645574    1.0948794341   -0.9346537453
C       -0.0045677942   -0.0178346214    0.1002705141
N       -1.2314554261    0.8683371937    2.0196374862
O        2.0865989567   -1.1768679869   -0.2883385073
O       -0.9646625488    1.1553153505    3.3651691413
O        0.1911599492   -2.3823737161   -0.0724143929
H        1.9183190425   -0.0803198083    2.4205889575
H        0.6315613329    0.9584566654    4.6616052163
H       -2.0686118370    0.6341690335   -0.3898127778
H       -1.3345265577   -0.5221992368   -1.6078449308
H        0.7323160600    0.9524800057   -1.7710098021
H       -0.0055857459    2.1091066891   -0.5536387609
H        0.8477279110   -3.0977078603   -0.1834438681
18   
torsion grid (105,)
C        0.9698938783    0.2682268046    2.5239604977
C        0.3947681255    0.7761473585    3.6481813529
C       -0.0831292471    0.3293842964    1.5549140967
C        0.8670638664   -1.2469627420   -0.1295855398
C       -1.2177122071    0.1890559406   -0.7685225605
C        0.0054576057    1.0574778080   -0.9260718668
C       -0.0197271655   -0.0539224699    0.1182095792
N       -1.1886856305    0.8308769718    2.0701541186
O        2.0819623324   -1.2299664484   -0.0756538094
O       -0.8860045369    1.1261944428    3.4057447458
O        0.1661998826   -2.3813670147   -0.3782686235
H        1.9788860202   -0.0893596896    2.3798017032
H        0.7488992990    0.9499241592    4.6559884606
H       -2.0940316792    0.6143264015   -0.2928780276
H       -1.4180286207   -0.5542264968   -1.5329354515
H        0.6455830367    0.9093467818   -1.7906540455
H       -0.0279064460    2.0726185975   -0.5439810545
H        0.8276122871   -3.0913572945   -0.4962029353
18   
torsion grid (120,)
C        0.9256811277    0.2222765111    2.5566125731
C        0.3489620593    0.7604592704    3.6657193070
C       -0.1133776780    0.2938567408    1.5731679799
C        0.8358107979   -1.2944968576   -0.1169554239
C       -1.2648924195    0.1292297793   -0.7344549202
C       -0.0463256283    0.9909342976   -0.9234834071
C       -0.0556440421   -0.1107729619    0.1414482482
N       -1.2125472788    0.8304380140    2.0679727973
O        2.0208100159   -1.3395855553    0.1562265379
O       -0.9205428487    1.1366912919    3.4025702276
O        0.1805340920   -2.3501880099   -0.6627555145
H        1.9251621082   -0.1652800138    2.4293072262
H        0.6945741358    0.9400470507    4.6754656851
H       -2.1294444298    0.5650474881   -0.2473192194
H       -1.4794608931   -0.6228830171   -1.4852215427
H        0.5786131153    0.8300902546   -1.7970349067
H       -0.0644096827    2.0089919701   -0.5481503782
H        0.8513837688   -3.0499363188   -0.7875787981
18   
torsion grid (135,)
C        0.9267125364    0.2302520108    2.6051557820
C        0.3621204899    0.8488779295    3.6779596204
C       -0.0774739408    0.3420830308    1.5894198428
C        0.8627300267   -1.2932795489   -0.0830347202
C       -1.2522166515    0.1083702063   -0.6954236187
C       -0.0393029863    0.9562926111   -0.9340521132
C       -0.0273341355   -0.1135850784    0.1723784075
N       -1.1455919838    0.9774026807    2.0351400607
O        1.9837382577   -1.4311370229    0.3715967467
O       -0.8678732429    1.3091002277    3.3654931459
O        0.2927554807   -2.2347269400   -0.8797891495
H        1.8959989986   -0.2357962904    2.5206372913
H        0.6931790607    1.0373544740    4.6909426739
H       -2.1006809179    0.5631956801   -0.1977182170
H       -1.4846388074   -0.6658195194   -1.4167016930
H        0.5686144812    0.7639361023   -1.8132089647
H       -0.0422170435    1.9841085071   -0.5860697355
H        0.9712101855   -2.9267896855   -1.0037969605
18   
torsion grid (150,)
C        0.2435185893    0.3275751083    2.7089587815
C       -0.4988605532    1.0476309155    3.5938031927
C       -0.4381617416    0.5235501627    1.4639114388
C        0.7776163598   -1.1953566237    0.0568577841
C       -1.0813614329    0.2782383030   -1.0208284602
C        0.1868435830    1.0664374079   -0.9997966983
C       -0.0879037379    0.0218951939    0.1059828339
N       -1.4965133059    1.2999150713    1.6130731116
O        1.6135869004   -1.5024593686    0.8877706288
O       -1.5373033119    1.6409704452    2.9681156263
O        0.5515121617   -1.9654581749   -1.0423444881
H        1.1313277475   -0.2583356041    2.8851004645
H       -0.4226315706    1.2293268531    4.6579372139
H       -1.9942190304    0.7784103743   -0.7191740074
H       -1.1863242884   -0.5035354264   -1.7627699520
H        0.9636989171    0.8242897951   -1.7184438727
H        0.1555315324    2.0991059595   -0.6686040604
H        1.2039961084   -2.6905653014   -0.9963884636
18   
torsion grid (165,)
C       -0.0835247647   -0.1704108473    2.6793122157
C       -0.6813384507    0.6779392544    3.5601815429
C       -0.4265164880    0.3789641846    1.4010322689
C        0.4965808155   -1.4553594905   -0.0932046542
C       -0.8047517152    0.5304701655   -1.1477868574
C        0.5934051159    0.9819546154   -0.9075647088
C       -0.0397626561   -0.0711042771    0.0349254155
N       -1.1669941381    1.4658701776    1.5305131851
O        0.8971577722   -2.1572592329    0.8183708368
O       -1.3293275080    1.6632155152    2.9040420030
O        0.5153214994   -1.8933858422   -1.3842375813
H        0.5022514626   -1.0529081882    2.8784658523
H       -0.7375891151    0.7135936380    4.6403185127
H       -1.6099088595    1.1996478063   -0.8671982403
H       -0.9945897797   -0.1295002576   -1.9852808675
H        1.3756480932    0.6293221936   -1.5713964057
H        0.7536039490    1.9523537733   -0.4501925485
H        0.9220779442   -2.7801203368   -1.3553204756
18   
torsion grid (180,)
C       -0.3023233275   -0.0170964033    2.7437078857
C       -0.7058359424    0.9810388425    3.5770305135
C       -0.2942674458    0.6070399224    1.4539674899
C        0.6036545535   -1.3330226201    0.0791376211
C       -0.9026619401    0.4364232252   -1.0546531871
C        0.4630410664    1.0188767224   -0.9874119830
C        0.0250049250    0.0371813455    0.1155007634
N       -0.6644563006    1.8733913681    1.5338983847
O        0.8421740215   -2.0424837704    1.0404253687
O       -0.9290905212    2.1166995354    2.8836098305
O        0.8578594691   -1.7576590527   -1.1925395065
H       -0.0362988526   -1.0334667942    2.9834700682
H       -0.8719743187    1.0392449490    4.6447777409
H       -1.7398710888    1.0600524774   -0.7611581495
H       -1.1045341401   -0.3303669097   -1.7937528332
H        1.2128008393    0.6567404524   -1.6810695892
H        0.5655683467    2.0450142164   -0.6528637531
H        1.2285669599   -2.6554971404   -1.1003235458
