
  -OEChem-12122420533D

 21 21  0     1  0  0  0  0  0999 V2000
   -0.0112   -2.4094    2.1891 O   0  0  0  0  0  0  0  0  0  0  0  0
   -1.1455   -1.6743    2.0458 C   0  0  0  0  0  0  0  0  0  0  0  0
   -1.9910   -1.5994    2.9124 O   0  0  0  0  0  0  0  0  0  0  0  0
   -1.2029   -1.0169    0.6699 C   0  0  2  0  0  0  0  0  0  0  0  0
    0.0457   -0.2751    0.4339 N   0  0  0  0  0  0  0  0  0  0  0  0
    0.8368   -0.9121    0.5050 H   0  0  0  0  0  0  0  0  0  0  0  0
    0.0405    0.0927   -0.5174 H   0  0  0  0  0  0  0  0  0  0  0  0
   -2.3799   -0.0631    0.6258 C   0  0  2  0  0  0  0  0  0  0  0  0
   -2.3118    0.7233    1.3714 H   0  0  0  0  0  0  0  0  0  0  0  0
   -3.7593   -0.5135    0.2380 C   0  0  0  0  0  0  0  0  0  0  0  0
   -3.8691   -1.5379   -0.1036 H   0  0  0  0  0  0  0  0  0  0  0  0
   -4.6162   -0.1012    0.7598 H   0  0  0  0  0  0  0  0  0  0  0  0
   -2.9970    0.4161   -0.6783 C   0  0  2  0  0  0  0  0  0  0  0  0
   -2.3759   -0.1928   -2.2282 S   0  0  0  0  0  0  0  0  0  0  0  0
   -2.4188   -1.6494   -2.2421 O   0  0  0  0  0  0  0  0  0  0  0  0
   -1.1388    0.5142   -2.5826 O   0  0  0  0  0  0  0  0  0  0  0  0
   -3.5398    0.3695   -3.2500 O   0  0  0  0  0  0  0  0  0  0  0  0
   -3.0919    0.9074   -3.9323 H   0  0  0  0  0  0  0  0  0  0  0  0
   -3.2718    1.4618   -0.7658 H   0  0  0  0  0  0  0  0  0  0  0  0
   -1.3661   -1.8403   -0.0431 H   0  0  0  0  0  0  0  0  0  0  0  0
   -0.0423   -2.7973    3.0851 H   0  0  0  0  0  0  0  0  0  0  0  0
  1  2  1  0  0  0  0
  1 21  1  0  0  0  0
  2  3  2  0  0  0  0
  2  4  1  0  0  0  0
  4  5  1  0  0  0  0
  4  8  1  0  0  0  0
  4 20  1  0  0  0  0
  5  6  1  0  0  0  0
  5  7  1  0  0  0  0
  8  9  1  0  0  0  0
  8 10  1  0  0  0  0
  8 13  1  0  0  0  0
 10 11  1  0  0  0  0
 10 12  1  0  0  0  0
 10 13  1  0  0  0  0
 13 14  1  0  0  0  0
 13 19  1  0  0  0  0
 14 15  2  0  0  0  0
 14 16  2  0  0  0  0
 14 17  1  0  0  0  0
 17 18  1  0  0  0  0
M  END
$$$$
