
  -OEChem-12122420533D

 16 16  0     0  0  0  0  0  0999 V2000
   -0.8927    0.4616   -3.2014 C   0  0  0  0  0  0  0  0  0  0  0  0
   -0.8443    0.9835   -4.1494 H   0  0  0  0  0  0  0  0  0  0  0  0
   -0.2366    0.7715   -2.0327 C   0  0  0  0  0  0  0  0  0  0  0  0
    0.4359    1.6162   -1.9308 H   0  0  0  0  0  0  0  0  0  0  0  0
   -0.5522   -0.1311   -0.9764 C   0  0  0  0  0  0  0  0  0  0  0  0
   -0.1711   -0.0714    0.0374 H   0  0  0  0  0  0  0  0  0  0  0  0
   -1.4405   -1.1000   -1.3825 C   0  0  0  0  0  0  0  0  0  0  0  0
   -2.0712   -2.3992   -0.3600 S   0  0  0  0  0  0  0  0  0  0  0  0
   -1.8462   -2.0242    1.0370 O   0  0  0  0  0  0  0  0  0  0  0  0
   -3.3802   -2.8062   -0.8738 O   0  0  0  0  0  0  0  0  0  0  0  0
   -0.8817   -3.7664   -0.7553 C   0  0  0  0  0  0  0  0  0  0  0  0
   -1.2191   -4.9720   -0.0103 C   0  0  0  0  0  0  0  0  0  0  0  0
   -1.4842   -5.9356    0.5827 N   0  0  0  0  0  0  0  0  0  0  0  0
   -0.9436   -3.9476   -1.8310 H   0  0  0  0  0  0  0  0  0  0  0  0
    0.1160   -3.4112   -0.4876 H   0  0  0  0  0  0  0  0  0  0  0  0
   -1.9179   -0.9196   -3.0438 S   0  0  0  0  0  0  0  0  0  0  0  0
  1  2  1  0  0  0  0
  1  3  2  0  0  0  0
  1 16  1  0  0  0  0
  3  4  1  0  0  0  0
  3  5  1  0  0  0  0
  5  6  1  0  0  0  0
  5  7  2  0  0  0  0
  7  8  1  0  0  0  0
  7 16  1  0  0  0  0
  8  9  2  0  0  0  0
  8 10  2  0  0  0  0
  8 11  1  0  0  0  0
 11 12  1  0  0  0  0
 11 14  1  0  0  0  0
 11 15  1  0  0  0  0
 12 13  3  0  0  0  0
M  END
$$$$
