
  -OEChem-12122420533D

 22 23  0     0  0  0  0  0  0999 V2000
    0.4526   -2.1660   -2.0302 C   0  0  0  0  0  0  0  0  0  0  0  0
   -0.0409   -1.4349   -2.6637 H   0  0  0  0  0  0  0  0  0  0  0  0
    0.8802   -3.3793   -2.4940 C   0  0  0  0  0  0  0  0  0  0  0  0
    0.7744   -3.9498   -3.8990 C   0  0  0  0  0  0  0  0  0  0  0  0
    1.3219   -5.2853   -4.1242 N   0  0  0  0  0  0  0  0  0  0  0  0
    2.3182   -5.3181   -3.9186 H   0  0  0  0  0  0  0  0  0  0  0  0
    0.8595   -5.9797   -3.5411 H   0  0  0  0  0  0  0  0  0  0  0  0
   -0.2818   -3.9673   -4.1897 H   0  0  0  0  0  0  0  0  0  0  0  0
    1.2714   -3.2626   -4.5927 H   0  0  0  0  0  0  0  0  0  0  0  0
    1.6443   -4.3471   -1.2266 S   0  0  0  0  0  0  0  0  0  0  0  0
    1.3702   -3.0813   -0.0756 C   0  0  0  0  0  0  0  0  0  0  0  0
    0.7276   -1.9756   -0.6324 C   0  0  0  0  0  0  0  0  0  0  0  0
    0.5142   -0.9456    0.3405 C   0  0  0  0  0  0  0  0  0  0  0  0
    0.0322    0.0029    0.1314 H   0  0  0  0  0  0  0  0  0  0  0  0
    0.9936   -1.3021    1.5743 C   0  0  0  0  0  0  0  0  0  0  0  0
    0.9511   -0.3436    3.0837 S   0  0  0  0  0  0  0  0  0  0  0  0
    0.0637   -1.0264    4.0194 O   0  0  0  0  0  0  0  0  0  0  0  0
    2.3264   -0.0042    3.4341 O   0  0  0  0  0  0  0  0  0  0  0  0
    0.1969    1.0918    2.6746 N   0  0  0  0  0  0  0  0  0  0  0  0
    0.7342    1.6794    2.0424 H   0  0  0  0  0  0  0  0  0  0  0  0
   -0.7862    0.9926    2.4353 H   0  0  0  0  0  0  0  0  0  0  0  0
    1.7243   -2.9003    1.6116 S   0  0  0  0  0  0  0  0  0  0  0  0
  1  2  1  0  0  0  0
  1  3  2  0  0  0  0
  1 12  1  0  0  0  0
  3  4  1  0  0  0  0
  3 10  1  0  0  0  0
  4  5  1  0  0  0  0
  4  8  1  0  0  0  0
  4  9  1  0  0  0  0
  5  6  1  0  0  0  0
  5  7  1  0  0  0  0
 10 11  1  0  0  0  0
 11 12  2  0  0  0  0
 11 22  1  0  0  0  0
 12 13  1  0  0  0  0
 13 14  1  0  0  0  0
 13 15  2  0  0  0  0
 15 16  1  0  0  0  0
 15 22  1  0  0  0  0
 16 17  2  0  0  0  0
 16 18  2  0  0  0  0
 16 19  1  0  0  0  0
 19 20  1  0  0  0  0
 19 21  1  0  0  0  0
M  END
$$$$
