7
0 1 C2H4S
C                    -0.612160537136    -0.845410426663    -0.277240126462
H                     0.013600568703     0.002897636820    -0.012223623142
H                    -1.284125153010    -0.674652089964    -1.114343772693
S                    -1.348077139688    -1.747817641670     1.144060306345
C                    -0.062747208922    -2.211568017025    -0.084292129878
H                    -0.354062655422    -2.987295256148    -0.787727422480
H                     0.943658732330    -2.309747683116     0.314388885244
