
  -OEChem-12122420533D

 20 20  0     1  0  0  0  0  0999 V2000
    1.4290   -1.0994   -1.6550 O   0  0  0  0  0  0  0  0  0  0  0  0
    0.2150   -0.6832   -1.0583 C   0  0  1  0  0  0  0  0  0  0  0  0
   -0.5946   -0.6295   -1.8027 H   0  0  0  0  0  0  0  0  0  0  0  0
   -0.1849   -1.6158    0.0886 C   0  0  0  0  0  0  0  0  0  0  0  0
   -0.6600   -2.5372   -0.2526 H   0  0  0  0  0  0  0  0  0  0  0  0
    0.7025   -1.8808    0.6722 H   0  0  0  0  0  0  0  0  0  0  0  0
   -1.1225   -0.8188    0.9146 N   0  0  0  0  0  0  0  0  0  0  0  0
   -2.0916   -1.0667    0.7539 H   0  0  0  0  0  0  0  0  0  0  0  0
   -0.8867    0.5808    0.6418 C   0  0  1  0  0  0  0  0  0  0  0  0
   -0.4175    1.5003    2.1622 S   0  0  0  0  0  0  0  0  0  0  0  0
   -0.3172    2.9085    1.7833 O   0  0  0  0  0  0  0  0  0  0  0  0
    0.6656    0.8175    2.8694 O   0  0  0  0  0  0  0  0  0  0  0  0
   -1.7787    1.3519    3.0809 O   0  0  0  0  0  0  0  0  0  0  0  0
   -1.6426    0.5901    3.6778 H   0  0  0  0  0  0  0  0  0  0  0  0
   -1.7562    1.1268    0.2651 H   0  0  0  0  0  0  0  0  0  0  0  0
    0.2947    0.6728   -0.3512 C   0  0  2  0  0  0  0  0  0  0  0  0
    0.1900    1.7371   -1.2788 O   0  0  0  0  0  0  0  0  0  0  0  0
    0.3298    2.5716   -0.7984 H   0  0  0  0  0  0  0  0  0  0  0  0
    1.2507    0.7111    0.1880 H   0  0  0  0  0  0  0  0  0  0  0  0
    1.6602   -0.4498   -2.3388 H   0  0  0  0  0  0  0  0  0  0  0  0
  1  2  1  0  0  0  0
  1 20  1  0  0  0  0
  2  3  1  0  0  0  0
  2  4  1  0  0  0  0
  2 16  1  0  0  0  0
  4  5  1  0  0  0  0
  4  6  1  0  0  0  0
  4  7  1  0  0  0  0
  7  8  1  0  0  0  0
  7  9  1  0  0  0  0
  9 10  1  0  0  0  0
  9 15  1  0  0  0  0
  9 16  1  0  0  0  0
 10 11  2  0  0  0  0
 10 12  2  0  0  0  0
 10 13  1  0  0  0  0
 13 14  1  0  0  0  0
 16 17  1  0  0  0  0
 16 19  1  0  0  0  0
 17 18  1  0  0  0  0
M  END
$$$$
