14
0 1 C3H7NO2S
N                    -0.619283638107    -0.795779642214    -0.890933388346
H                     0.050515124236    -1.122971832485    -1.588562426882
C                    -1.189681398650     0.513566213075    -1.257082842851
H                    -1.486341804858     0.489167037248    -2.307398866565
H                    -2.088481985210     0.674580635165    -0.654701654030
C                    -0.128318282069     1.601467566771    -0.968010255749
H                     0.645357130629     1.568458688310    -1.741770590806
H                    -0.566422247954     2.603498429598    -0.969922120093
C                     0.477377773343     1.260420485229     0.397047418614
H                     1.542852718562     1.473111824247     0.486600501317
H                    -0.069499166165     1.703162260732     1.230533858147
S                     0.263438957261    -0.568926235139     0.566645835909
O                     1.535733004325    -1.286402001460     0.425272614467
O                    -0.624025648010    -0.814275248286     1.702289562844
