22
0 1 C7H8N2O2S3
C                     0.452557721714    -2.166031640700    -2.030220331039
H                    -0.040907403966    -1.434874013473    -2.663683209005
C                     0.880239018549    -3.379311892856    -2.493986089576
C                     0.774440629404    -3.949817192791    -3.898977931638
N                     1.321894006940    -5.285334110296    -4.124202457174
H                     2.318156017946    -5.318072325198    -3.918601558311
H                     0.859536796427    -5.979679720659    -3.541115926721
H                    -0.281811582549    -3.967301980430    -4.189748050439
H                     1.271365478645    -3.262581586264    -4.592724582192
S                     1.644258592894    -4.347117632196    -1.226629456392
C                     1.370249088011    -3.081317441483    -0.075639627391
C                     0.727569985660    -1.975570126118    -0.632369285634
C                     0.514156526129    -0.945632642702     0.340515681786
H                     0.032197168246     0.002917703219     0.131419334609
C                     0.993596132638    -1.302065720981     1.574322627984
S                     0.951118733972    -0.343572944912     3.083714815335
O                     0.063651122975    -1.026362759064     4.019441832165
O                     2.326402562136    -0.004184474085     3.434137710526
N                     0.196928658067     1.091812751173     2.674625445407
H                     0.734190029608     1.679447591503     2.042351935556
H                    -0.786234915200     0.992588494561     2.435293611070
S                     1.724297328646    -2.900250954975     1.611601738989
