
  -OEChem-12122420533D

 21 21  0     1  0  0  0  0  0999 V2000
   -2.2710   -2.7445    2.0684 O   0  0  0  0  0  0  0  0  0  0  0  0
   -1.3138   -1.7821    2.0479 C   0  0  0  0  0  0  0  0  0  0  0  0
   -0.6614   -1.4805    3.0280 O   0  0  0  0  0  0  0  0  0  0  0  0
   -1.1848   -1.1185    0.6738 C   0  0  2  0  0  0  0  0  0  0  0  0
    0.1157   -0.5057    0.4414 N   0  0  0  0  0  0  0  0  0  0  0  0
    0.4238   -0.0311    1.2898 H   0  0  0  0  0  0  0  0  0  0  0  0
    0.8078   -1.2255    0.2433 H   0  0  0  0  0  0  0  0  0  0  0  0
   -2.2807   -0.0598    0.5869 C   0  0  2  0  0  0  0  0  0  0  0  0
   -2.1738    0.7263    1.3316 H   0  0  0  0  0  0  0  0  0  0  0  0
   -3.6860   -0.4178    0.1730 C   0  0  0  0  0  0  0  0  0  0  0  0
   -3.8434   -1.4455   -0.1402 H   0  0  0  0  0  0  0  0  0  0  0  0
   -4.5313    0.0512    0.6666 H   0  0  0  0  0  0  0  0  0  0  0  0
   -2.8364    0.4528   -0.7232 C   0  0  2  0  0  0  0  0  0  0  0  0
   -2.2799   -0.1556   -2.3044 S   0  0  0  0  0  0  0  0  0  0  0  0
   -2.0728   -1.6060   -2.2330 O   0  0  0  0  0  0  0  0  0  0  0  0
   -1.2902    0.7478   -2.8575 O   0  0  0  0  0  0  0  0  0  0  0  0
   -3.6502    0.0695   -3.2041 O   0  0  0  0  0  0  0  0  0  0  0  0
   -4.0920   -0.7969   -3.2904 H   0  0  0  0  0  0  0  0  0  0  0  0
   -3.0502    1.5138   -0.8026 H   0  0  0  0  0  0  0  0  0  0  0  0
   -1.3622   -1.8777   -0.0884 H   0  0  0  0  0  0  0  0  0  0  0  0
   -2.3051   -3.0873    2.9830 H   0  0  0  0  0  0  0  0  0  0  0  0
  1  2  1  0  0  0  0
  1 21  1  0  0  0  0
  2  3  2  0  0  0  0
  2  4  1  0  0  0  0
  4  5  1  0  0  0  0
  4  8  1  0  0  0  0
  4 20  1  0  0  0  0
  5  6  1  0  0  0  0
  5  7  1  0  0  0  0
  8  9  1  0  0  0  0
  8 10  1  0  0  0  0
  8 13  1  0  0  0  0
 10 11  1  0  0  0  0
 10 12  1  0  0  0  0
 10 13  1  0  0  0  0
 13 14  1  0  0  0  0
 13 19  1  0  0  0  0
 14 15  2  0  0  0  0
 14 16  2  0  0  0  0
 14 17  1  0  0  0  0
 17 18  1  0  0  0  0
M  END
$$$$
