
  -OEChem-12122420533D

 22 23  0     0  0  0  0  0  0999 V2000
    0.8555   -1.8226   -2.2605 C   0  0  0  0  0  0  0  0  0  0  0  0
    0.8780   -0.9996   -2.9682 H   0  0  0  0  0  0  0  0  0  0  0  0
    0.7592   -3.1290   -2.6528 C   0  0  0  0  0  0  0  0  0  0  0  0
    0.7270   -3.6860   -4.0555 C   0  0  0  0  0  0  0  0  0  0  0  0
    1.9537   -4.3552   -4.5144 N   0  0  0  0  0  0  0  0  0  0  0  0
    2.7530   -3.7415   -4.3618 H   0  0  0  0  0  0  0  0  0  0  0  0
    2.1259   -5.1922   -3.9595 H   0  0  0  0  0  0  0  0  0  0  0  0
   -0.1012   -4.3939   -4.1663 H   0  0  0  0  0  0  0  0  0  0  0  0
    0.5163   -2.8544   -4.7359 H   0  0  0  0  0  0  0  0  0  0  0  0
    0.7459   -4.2369   -1.2697 S   0  0  0  0  0  0  0  0  0  0  0  0
    0.8740   -2.8999   -0.1753 C   0  0  0  0  0  0  0  0  0  0  0  0
    0.9222   -1.6675   -0.8323 C   0  0  0  0  0  0  0  0  0  0  0  0
    1.0415   -0.5815    0.0914 C   0  0  0  0  0  0  0  0  0  0  0  0
    1.1136    0.4693   -0.1680 H   0  0  0  0  0  0  0  0  0  0  0  0
    1.0803   -1.0236    1.3883 C   0  0  0  0  0  0  0  0  0  0  0  0
    1.1829    0.0091    2.8305 S   0  0  0  0  0  0  0  0  0  0  0  0
    1.8697   -0.7600    3.8640 O   0  0  0  0  0  0  0  0  0  0  0  0
    1.6122    1.3259    2.3704 O   0  0  0  0  0  0  0  0  0  0  0  0
   -0.3891    0.2164    3.3996 N   0  0  0  0  0  0  0  0  0  0  0  0
   -0.9849    0.6856    2.7198 H   0  0  0  0  0  0  0  0  0  0  0  0
   -0.7947   -0.6562    3.7332 H   0  0  0  0  0  0  0  0  0  0  0  0
    0.9998   -2.7738    1.5490 S   0  0  0  0  0  0  0  0  0  0  0  0
  1  2  1  0  0  0  0
  1  3  2  0  0  0  0
  1 12  1  0  0  0  0
  3  4  1  0  0  0  0
  3 10  1  0  0  0  0
  4  5  1  0  0  0  0
  4  8  1  0  0  0  0
  4  9  1  0  0  0  0
  5  6  1  0  0  0  0
  5  7  1  0  0  0  0
 10 11  1  0  0  0  0
 11 12  2  0  0  0  0
 11 22  1  0  0  0  0
 12 13  1  0  0  0  0
 13 14  1  0  0  0  0
 13 15  2  0  0  0  0
 15 16  1  0  0  0  0
 15 22  1  0  0  0  0
 16 17  2  0  0  0  0
 16 18  2  0  0  0  0
 16 19  1  0  0  0  0
 19 20  1  0  0  0  0
 19 21  1  0  0  0  0
M  END
$$$$
