20
0 1 C4H9NO5S
O                     1.429027187390    -1.099425483942    -1.654980765661
C                     0.214958450607    -0.683199122141    -1.058295709128
H                    -0.594649153050    -0.629528175524    -1.802691392211
C                    -0.184879081309    -1.615780217496     0.088590498774
H                    -0.659985017510    -2.537179226878    -0.252588914113
H                     0.702514354919    -1.880847262531     0.672194426953
N                    -1.122540611268    -0.818792262622     0.914566463742
H                    -2.091583318214    -1.066688142183     0.753852640766
C                    -0.886690323760     0.580839834521     0.641831016495
S                    -0.417469573698     1.500276623055     2.162172970440
O                    -0.317244288431     2.908521359765     1.783270821418
O                     0.665629142263     0.817546044999     2.869425059510
O                    -1.778709054565     1.351924861271     3.080927771261
H                    -1.642643480546     0.590132218091     3.677778671931
H                    -1.756237216224     1.126784369076     0.265130054165
C                     0.294699291340     0.672821427863    -0.351245532915
O                     0.189978301704     1.737054203664    -1.278830623890
H                     0.329849400716     2.571616989643    -0.798388226566
H                     1.250657869498     0.711064884958     0.188005666649
H                     1.660189160606    -0.449806148388    -2.338811931771
