
  -OEChem-12122420533D

 14 14  0     0  0  0  0  0  0999 V2000
    0.8841   -0.8463   -0.1114 C   0  0  0  0  0  0  0  0  0  0  0  0
    0.3702   -0.0941    0.4721 H   0  0  0  0  0  0  0  0  0  0  0  0
    1.8819   -0.6631   -1.0512 C   0  0  0  0  0  0  0  0  0  0  0  0
    2.3762    0.2228   -1.4232 H   0  0  0  0  0  0  0  0  0  0  0  0
    2.2004   -1.9267   -1.4996 N   0  0  0  0  0  0  0  0  0  0  0  0
    2.9105   -2.1966   -2.1714 H   0  0  0  0  0  0  0  0  0  0  0  0
    1.3924   -2.7960   -0.8235 C   0  0  0  0  0  0  0  0  0  0  0  0
    1.4676   -4.5544   -1.1359 S   0  0  0  0  0  0  0  0  0  0  0  0
    0.2251   -4.9905   -1.7566 O   0  0  0  0  0  0  0  0  0  0  0  0
    2.7764   -4.7509   -1.7639 O   0  0  0  0  0  0  0  0  0  0  0  0
    1.5163   -5.2711    0.3752 N   0  0  0  0  0  0  0  0  0  0  0  0
    2.3267   -4.9672    0.9129 H   0  0  0  0  0  0  0  0  0  0  0  0
    0.6458   -5.1089    0.8811 H   0  0  0  0  0  0  0  0  0  0  0  0
    0.5879   -2.1859    0.0210 N   0  0  0  0  0  0  0  0  0  0  0  0
  1  2  1  0  0  0  0
  1  3  2  0  0  0  0
  1 14  1  0  0  0  0
  3  4  1  0  0  0  0
  3  5  1  0  0  0  0
  5  6  1  0  0  0  0
  5  7  1  0  0  0  0
  7  8  1  0  0  0  0
  7 14  2  0  0  0  0
  8  9  2  0  0  0  0
  8 10  2  0  0  0  0
  8 11  1  0  0  0  0
 11 12  1  0  0  0  0
 11 13  1  0  0  0  0
M  END
$$$$
