18
0 1 C7H5N3O2S
C                     2.971469962950     3.094313150051    -0.187043818275
H                     3.521303272657     4.026626778077    -0.180154084454
N                     1.706849181237     2.944621665032    -0.506173856155
C                     1.436197549178     1.588257615517    -0.373174752944
C                     0.140067534885     1.019238753199    -0.636716703966
C                    -0.962240218571     1.691144265271    -1.036340400663
S                    -1.128396422780     3.428535343147    -1.345276527510
C                    -2.864231126978     3.219502788282    -1.782236322305
O                    -3.610267550462     4.114307044422    -2.119913989668
N                    -3.213739736243     1.878487878311    -1.672841676586
H                    -4.161069799517     1.581006660040    -1.883768871078
C                    -2.241534883249     0.966514255899    -1.271718529804
O                    -2.439558673553    -0.232404687686    -1.142907922425
H                     0.018980946242    -0.053890825040    -0.506352056581
C                     2.582391757333     0.921402041567     0.037934825070
H                     2.775654915989    -0.120736723130     0.248645215659
N                     3.549865760772     1.893222113936     0.151571545814
H                     4.511071935323     1.748538608577     0.433428563518
