
  -OEChem-12102412493D

 16 16  0     0  0  0  0  0  0999 V2000
   -0.9975    0.5412   -3.1562 C   0  0  0  0  0  0  0  0  0  0  0  0
   -1.0111    1.1097   -4.0781 H   0  0  0  0  0  0  0  0  0  0  0  0
   -0.2753    0.8012   -2.0147 C   0  0  0  0  0  0  0  0  0  0  0  0
    0.3925    1.6494   -1.9102 H   0  0  0  0  0  0  0  0  0  0  0  0
   -0.4943   -0.1737   -0.9990 C   0  0  0  0  0  0  0  0  0  0  0  0
   -0.0176   -0.1856   -0.0247 H   0  0  0  0  0  0  0  0  0  0  0  0
   -1.3803   -1.1440   -1.4067 C   0  0  0  0  0  0  0  0  0  0  0  0
   -1.9063   -2.5216   -0.4285 S   0  0  0  0  0  0  0  0  0  0  0  0
   -2.2912   -3.6131   -1.3250 O   0  0  0  0  0  0  0  0  0  0  0  0
   -0.9485   -2.6907    0.6655 O   0  0  0  0  0  0  0  0  0  0  0  0
   -3.4678   -1.8498    0.3136 C   0  0  0  0  0  0  0  0  0  0  0  0
   -4.0928   -2.8410    1.1791 C   0  0  0  0  0  0  0  0  0  0  0  0
   -4.5944   -3.6284    1.8711 N   0  0  0  0  0  0  0  0  0  0  0  0
   -3.1953   -0.9565    0.8803 H   0  0  0  0  0  0  0  0  0  0  0  0
   -4.1314   -1.5862   -0.5134 H   0  0  0  0  0  0  0  0  0  0  0  0
   -1.9457   -0.8972   -3.0314 S   0  0  0  0  0  0  0  0  0  0  0  0
  1  2  1  0  0  0  0
  1  3  2  0  0  0  0
  1 16  1  0  0  0  0
  3  4  1  0  0  0  0
  3  5  1  0  0  0  0
  5  6  1  0  0  0  0
  5  7  2  0  0  0  0
  7  8  1  0  0  0  0
  7 16  1  0  0  0  0
  8  9  2  0  0  0  0
  8 10  2  0  0  0  0
  8 11  1  0  0  0  0
 11 12  1  0  0  0  0
 11 14  1  0  0  0  0
 11 15  1  0  0  0  0
 12 13  3  0  0  0  0
M  END
$$$$
