
  -OEChem-12122420533D

 18 18  0     1  0  0  0  0  0999 V2000
   -0.7306   -3.7436    1.2120 O   0  0  0  0  0  0  0  0  0  0  0  0
   -0.0663   -2.6044    1.5357 C   0  0  0  0  0  0  0  0  0  0  0  0
   -0.3291   -1.9685    2.5399 O   0  0  0  0  0  0  0  0  0  0  0  0
    1.0172   -2.2700    0.5319 C   0  0  0  0  0  0  0  0  0  0  0  0
    0.9066   -0.8349   -0.0119 C   0  0  1  0  0  0  0  0  0  0  0  0
    1.6297   -0.7538   -0.8367 H   0  0  0  0  0  0  0  0  0  0  0  0
   -0.4295   -0.6001   -0.5559 N   0  0  0  0  0  0  0  0  0  0  0  0
   -0.7841    0.6219   -0.4252 C   0  0  0  0  0  0  0  0  0  0  0  0
   -1.9189    1.1703   -0.9850 N   0  0  0  0  0  0  0  0  0  0  0  0
   -2.5602    0.4712   -1.3455 H   0  0  0  0  0  0  0  0  0  0  0  0
   -2.3690    1.8982   -0.4427 H   0  0  0  0  0  0  0  0  0  0  0  0
    0.3189    1.7363    0.4584 S   0  0  0  0  0  0  0  0  0  0  0  0
    1.2383    0.2578    1.0368 C   0  0  0  0  0  0  0  0  0  0  0  0
    0.8839   -0.0167    2.0300 H   0  0  0  0  0  0  0  0  0  0  0  0
    2.3065    0.4821    1.0673 H   0  0  0  0  0  0  0  0  0  0  0  0
    0.9623   -2.9756   -0.2983 H   0  0  0  0  0  0  0  0  0  0  0  0
    1.9846   -2.4031    1.0293 H   0  0  0  0  0  0  0  0  0  0  0  0
   -1.3969   -3.8773    1.9140 H   0  0  0  0  0  0  0  0  0  0  0  0
  1  2  1  0  0  0  0
  1 18  1  0  0  0  0
  2  3  2  0  0  0  0
  2  4  1  0  0  0  0
  4  5  1  0  0  0  0
  4 16  1  0  0  0  0
  4 17  1  0  0  0  0
  5  6  1  0  0  0  0
  5  7  1  0  0  0  0
  5 13  1  0  0  0  0
  7  8  2  0  0  0  0
  8  9  1  0  0  0  0
  8 12  1  0  0  0  0
  9 10  1  0  0  0  0
  9 11  1  0  0  0  0
 12 13  1  0  0  0  0
 13 14  1  0  0  0  0
 13 15  1  0  0  0  0
M  END
$$$$
