16
0 1 C6H5NO2S2
C                    -0.882184480355     0.463552002694    -3.189583145833
H                    -0.817143436394     0.979026471125    -4.140066988863
C                    -0.260411248683     0.791850855974    -2.007345862925
H                     0.403180402565     1.642463401541    -1.896901281995
C                    -0.588902214457    -0.105637043014    -0.951644154025
H                    -0.215227669513    -0.047012659032     0.064474628550
C                    -1.457414904148    -1.086175812647    -1.372062737066
S                    -2.053116458376    -2.413199308918    -0.376147247172
O                    -1.922812624035    -2.031047958905     1.030917487860
O                    -3.308533525452    -2.911550486538    -0.947080281047
C                    -0.821293492793    -3.763116535354    -0.689184899576
C                     0.535639924941    -3.341744803613    -0.376308566845
N                     1.610965017093    -2.970173642829    -0.137949312595
H                    -1.141940073182    -4.588970995942    -0.047633479152
H                    -0.917386740145    -4.050194420710    -1.738654271504
S                    -1.889796173049    -0.932400714719    -3.048866945523
