
  -OEChem-12122420533D

 15 15  0     0  0  0  0  0  0999 V2000
    1.7358    0.2223    0.5737 C   0  0  0  0  0  0  0  0  0  0  0  0
    2.7052   -0.0985    0.1892 H   0  0  0  0  0  0  0  0  0  0  0  0
    1.7930    0.3041    1.6652 H   0  0  0  0  0  0  0  0  0  0  0  0
    0.7190   -0.7646    0.1982 N   0  0  0  0  0  0  0  0  0  0  0  0
    1.0088   -2.0752    0.1647 N   0  0  0  0  0  0  0  0  0  0  0  0
    0.0941   -2.8010   -0.1982 O   0  0  0  0  0  0  0  0  0  0  0  0
   -0.8628   -0.0516   -0.2761 S   0  0  0  0  0  0  0  0  0  0  0  0
   -1.9047   -0.4750    0.6524 O   0  0  0  0  0  0  0  0  0  0  0  0
   -1.0160   -0.1706   -1.7236 O   0  0  0  0  0  0  0  0  0  0  0  0
   -0.2488    1.6159    0.1446 C   0  0  0  0  0  0  0  0  0  0  0  0
   -0.7564    2.3146   -0.5219 H   0  0  0  0  0  0  0  0  0  0  0  0
   -0.5351    1.7990    1.1828 H   0  0  0  0  0  0  0  0  0  0  0  0
    1.2656    1.5437   -0.0544 C   0  0  0  0  0  0  0  0  0  0  0  0
    1.7593    2.3962    0.4176 H   0  0  0  0  0  0  0  0  0  0  0  0
    1.5002    1.5569   -1.1220 H   0  0  0  0  0  0  0  0  0  0  0  0
  1  2  1  0  0  0  0
  1  3  1  0  0  0  0
  1  4  1  0  0  0  0
  1 13  1  0  0  0  0
  4  5  1  0  0  0  0
  4  7  1  0  0  0  0
  5  6  2  0  0  0  0
  7  8  2  0  0  0  0
  7  9  2  0  0  0  0
  7 10  1  0  0  0  0
 10 11  1  0  0  0  0
 10 12  1  0  0  0  0
 10 13  1  0  0  0  0
 13 14  1  0  0  0  0
 13 15  1  0  0  0  0
M  END
$$$$
