16
0 1 C6H5N3OS
C                     0.506749807339    -1.575681242846     2.441861382893
H                     0.743884656651    -2.125909408712     3.342547628943
C                     1.247616418188    -0.626658018877     1.803761753664
H                     2.219722013413    -0.309731332025     2.167598788426
C                     0.601593741381    -0.113161133309     0.625034159230
C                    -0.633792650620    -0.707821727170     0.410920397162
S                    -1.021338433119    -1.887933807940     1.629312130748
N                    -1.403169435125    -0.359282851019    -0.652552009197
H                    -2.309021773694    -0.776359108463    -0.834090013768
C                    -0.982069986226     0.629595640327    -1.596743702355
O                    -1.735212328297     0.886036128433    -2.528133217634
N                     0.241655615514     1.216901448850    -1.382362578793
C                     0.991638849014     0.880729211275    -0.350344365292
N                     2.188016927055     1.515401634883    -0.219056361884
H                     2.436972192933     2.206294580909    -0.914580804444
H                     2.822865990016     1.320396625937     0.538902445323
