
  -OEChem-12102412493D

 22 23  0     0  0  0  0  0  0999 V2000
   -0.1091   -2.2598   -2.0135 C   0  0  0  0  0  0  0  0  0  0  0  0
   -0.9896   -1.8427   -2.4925 H   0  0  0  0  0  0  0  0  0  0  0  0
    0.7134   -3.1568   -2.6369 C   0  0  0  0  0  0  0  0  0  0  0  0
    0.5617   -3.7717   -4.0072 C   0  0  0  0  0  0  0  0  0  0  0  0
    0.1394   -5.1801   -4.0414 N   0  0  0  0  0  0  0  0  0  0  0  0
    0.8558   -5.7719   -3.6236 H   0  0  0  0  0  0  0  0  0  0  0  0
   -0.6972   -5.2980   -3.4712 H   0  0  0  0  0  0  0  0  0  0  0  0
   -0.1790   -3.1793   -4.5543 H   0  0  0  0  0  0  0  0  0  0  0  0
    1.4986   -3.6901   -4.5682 H   0  0  0  0  0  0  0  0  0  0  0  0
    2.0617   -3.6520   -1.5988 S   0  0  0  0  0  0  0  0  0  0  0  0
    1.4816   -2.6280   -0.3274 C   0  0  0  0  0  0  0  0  0  0  0  0
    0.3171   -1.9395   -0.6778 C   0  0  0  0  0  0  0  0  0  0  0  0
   -0.1487   -1.1118    0.3921 C   0  0  0  0  0  0  0  0  0  0  0  0
   -1.0385   -0.4916    0.3758 H   0  0  0  0  0  0  0  0  0  0  0  0
    0.6637   -1.2041    1.4923 C   0  0  0  0  0  0  0  0  0  0  0  0
    0.4535   -0.3068    3.0114 S   0  0  0  0  0  0  0  0  0  0  0  0
   -0.9126    0.2066    3.0065 O   0  0  0  0  0  0  0  0  0  0  0  0
    1.0143   -1.1291    4.0794 O   0  0  0  0  0  0  0  0  0  0  0  0
    1.4491    1.0491    2.9235 N   0  0  0  0  0  0  0  0  0  0  0  0
    2.4364    0.7999    2.9041 H   0  0  0  0  0  0  0  0  0  0  0  0
    1.1902    1.6670    2.1566 H   0  0  0  0  0  0  0  0  0  0  0  0
    2.0135   -2.3148    1.2925 S   0  0  0  0  0  0  0  0  0  0  0  0
  1  2  1  0  0  0  0
  1  3  2  0  0  0  0
  1 12  1  0  0  0  0
  3  4  1  0  0  0  0
  3 10  1  0  0  0  0
  4  5  1  0  0  0  0
  4  8  1  0  0  0  0
  4  9  1  0  0  0  0
  5  6  1  0  0  0  0
  5  7  1  0  0  0  0
 10 11  1  0  0  0  0
 11 12  2  0  0  0  0
 11 22  1  0  0  0  0
 12 13  1  0  0  0  0
 13 14  1  0  0  0  0
 13 15  2  0  0  0  0
 15 16  1  0  0  0  0
 15 22  1  0  0  0  0
 16 17  2  0  0  0  0
 16 18  2  0  0  0  0
 16 19  1  0  0  0  0
 19 20  1  0  0  0  0
 19 21  1  0  0  0  0
M  END
$$$$
