
  -OEChem-12122420533D

 18 18  0     1  0  0  0  0  0999 V2000
    0.2592   -4.2427   -0.7105 O   0  0  0  0  0  0  0  0  0  0  0  0
    1.1241   -3.1996   -0.8134 C   0  0  0  0  0  0  0  0  0  0  0  0
    1.8672   -3.0592   -1.7644 O   0  0  0  0  0  0  0  0  0  0  0  0
    1.0701   -2.2829    0.3898 C   0  0  0  0  0  0  0  0  0  0  0  0
    0.9676   -0.8149   -0.0369 C   0  0  1  0  0  0  0  0  0  0  0  0
    1.7664   -0.6119   -0.7618 H   0  0  0  0  0  0  0  0  0  0  0  0
   -0.3171   -0.5620   -0.6870 N   0  0  0  0  0  0  0  0  0  0  0  0
   -0.7449    0.6185   -0.4509 C   0  0  0  0  0  0  0  0  0  0  0  0
   -1.8328    1.1993   -1.0668 N   0  0  0  0  0  0  0  0  0  0  0  0
   -2.3897    0.5387   -1.5991 H   0  0  0  0  0  0  0  0  0  0  0  0
   -2.3787    1.8355   -0.4979 H   0  0  0  0  0  0  0  0  0  0  0  0
    0.1982    1.6482    0.6930 S   0  0  0  0  0  0  0  0  0  0  0  0
    1.1198    0.1386    1.1734 C   0  0  0  0  0  0  0  0  0  0  0  0
    0.6704   -0.2822    2.0779 H   0  0  0  0  0  0  0  0  0  0  0  0
    2.1629    0.3915    1.3720 H   0  0  0  0  0  0  0  0  0  0  0  0
    1.9995   -2.4385    0.9502 H   0  0  0  0  0  0  0  0  0  0  0  0
    0.2293   -2.5540    1.0316 H   0  0  0  0  0  0  0  0  0  0  0  0
    0.3766   -4.7723   -1.5231 H   0  0  0  0  0  0  0  0  0  0  0  0
  1  2  1  0  0  0  0
  1 18  1  0  0  0  0
  2  3  2  0  0  0  0
  2  4  1  0  0  0  0
  4  5  1  0  0  0  0
  4 16  1  0  0  0  0
  4 17  1  0  0  0  0
  5  6  1  0  0  0  0
  5  7  1  0  0  0  0
  5 13  1  0  0  0  0
  7  8  2  0  0  0  0
  8  9  1  0  0  0  0
  8 12  1  0  0  0  0
  9 10  1  0  0  0  0
  9 11  1  0  0  0  0
 12 13  1  0  0  0  0
 13 14  1  0  0  0  0
 13 15  1  0  0  0  0
M  END
$$$$
