
  -OEChem-12122420533D

 22 23  0     0  0  0  0  0  0999 V2000
    0.5244   -2.0906   -2.0673 C   0  0  0  0  0  0  0  0  0  0  0  0
    0.1436   -1.2961   -2.7017 H   0  0  0  0  0  0  0  0  0  0  0  0
    0.8451   -3.3291   -2.5502 C   0  0  0  0  0  0  0  0  0  0  0  0
    0.6878   -3.8550   -3.9562 C   0  0  0  0  0  0  0  0  0  0  0  0
   -0.4122   -4.8076   -4.1722 N   0  0  0  0  0  0  0  0  0  0  0  0
   -0.2436   -5.6635   -3.6458 H   0  0  0  0  0  0  0  0  0  0  0  0
   -1.2789   -4.4136   -3.8084 H   0  0  0  0  0  0  0  0  0  0  0  0
    0.5290   -2.9944   -4.6141 H   0  0  0  0  0  0  0  0  0  0  0  0
    1.6144   -4.3332   -4.2908 H   0  0  0  0  0  0  0  0  0  0  0  0
    1.4481   -4.4017   -1.2748 S   0  0  0  0  0  0  0  0  0  0  0  0
    1.2424   -3.1468   -0.0981 C   0  0  0  0  0  0  0  0  0  0  0  0
    0.7479   -1.9632   -0.6525 C   0  0  0  0  0  0  0  0  0  0  0  0
    0.6106   -0.9356    0.3333 C   0  0  0  0  0  0  0  0  0  0  0  0
    0.2631    0.0761    0.1539 H   0  0  0  0  0  0  0  0  0  0  0  0
    0.9994   -1.3707    1.5736 C   0  0  0  0  0  0  0  0  0  0  0  0
    0.9358   -0.4151    3.0701 S   0  0  0  0  0  0  0  0  0  0  0  0
    1.9927   -0.9123    3.9457 O   0  0  0  0  0  0  0  0  0  0  0  0
    0.7954    0.9808    2.6675 O   0  0  0  0  0  0  0  0  0  0  0  0
   -0.5062   -0.8128    3.8447 N   0  0  0  0  0  0  0  0  0  0  0  0
   -1.3226   -0.5755    3.2842 H   0  0  0  0  0  0  0  0  0  0  0  0
   -0.5188   -1.7818    4.1579 H   0  0  0  0  0  0  0  0  0  0  0  0
    1.5741   -3.0334    1.5998 S   0  0  0  0  0  0  0  0  0  0  0  0
  1  2  1  0  0  0  0
  1  3  2  0  0  0  0
  1 12  1  0  0  0  0
  3  4  1  0  0  0  0
  3 10  1  0  0  0  0
  4  5  1  0  0  0  0
  4  8  1  0  0  0  0
  4  9  1  0  0  0  0
  5  6  1  0  0  0  0
  5  7  1  0  0  0  0
 10 11  1  0  0  0  0
 11 12  2  0  0  0  0
 11 22  1  0  0  0  0
 12 13  1  0  0  0  0
 13 14  1  0  0  0  0
 13 15  2  0  0  0  0
 15 16  1  0  0  0  0
 15 22  1  0  0  0  0
 16 17  2  0  0  0  0
 16 18  2  0  0  0  0
 16 19  1  0  0  0  0
 19 20  1  0  0  0  0
 19 21  1  0  0  0  0
M  END
$$$$
