24   
torsion grid (-165,)
C       -4.3623932793    3.2510303247   -1.5237187906
C       -2.9190250040    4.9869850679   -0.7008677173
C        0.0264812175   -0.1321332965   -0.9115452133
C       -3.3612216529   -0.1213199908   -0.3876732081
C       -1.9534270466    2.9075956746   -1.4973872339
C       -1.6886528101    1.5082204406   -0.9482081719
N       -3.1004808876    3.5451999770   -0.8434729897
O       -0.3966314114    1.1435510295   -1.3773657141
O       -2.6662743184    0.5841063687   -1.4119456186
H       -4.4784228351    2.1737996016   -1.6471519127
H       -4.4194003253    3.7153358255   -2.5270712684
H       -5.1987515987    3.6290687624   -0.9259695069
H       -2.0148451990    5.1959129121   -0.1206922351
H       -3.7716489477    5.4093591644   -0.1586765141
H       -2.8389349827    5.5153308382   -1.6702648726
H        1.0580836704   -0.2626198638   -1.2451217788
H       -0.5931546003   -0.9347110425   -1.3276911201
H       -0.0042660991   -0.1832085771    0.1878259448
H       -4.0436223451   -0.8104607583   -0.8908442840
H       -3.9420795708    0.5608344985    0.2466950012
H       -2.6766393421   -0.7001179106    0.2471478855
H       -1.0552280953    3.4955454555   -1.2904653789
H       -2.0612009408    2.8492019837   -2.5926538084
H       -1.7224809874    1.5388579551    0.1532653250
24   
torsion grid (-150,)
C       -3.9933972003    2.7081786656   -2.8530736248
C       -1.7654940281    3.6078600735   -2.5425478440
C       -3.9139577420   -0.4347950330   -0.1439279819
C       -0.1048870999    0.1560880148   -0.7417390233
C       -2.9201147772    2.5448893083   -0.6628818331
C       -2.2465983807    1.1605182636   -0.7361960646
N       -3.0427401258    3.2864383894   -1.9138746722
O       -2.7550605190    0.2754220512    0.2631403478
O       -0.8759008562    1.3365581054   -0.5243505212
H       -4.9516313278    2.5370446433   -2.3511790650
H       -3.6667797653    1.7509473785   -3.3024692069
H       -4.1661493714    3.4120813479   -3.6745351673
H       -1.0975892858    4.0609506698   -1.8047818094
H       -1.9321890824    4.3298783814   -3.3498316865
H       -1.2444780768    2.7322567146   -2.9693650013
H       -4.1888038891   -1.0938309757    0.6824734229
H       -3.7188099235   -1.0431848593   -1.0400717212
H       -4.7598010760    0.2353977723   -0.3559614049
H        0.9415348136    0.4365808440   -0.6065924368
H       -0.2477347212   -0.2216018910   -1.7652355049
H       -0.3725369016   -0.6281067487   -0.0262606535
H       -3.9254827536    2.4142968048   -0.2495740883
H       -2.3499421049    3.1433409215    0.0552662070
H       -2.4137716119    0.6901455326   -1.7231673626
24   
torsion grid (-135,)
C       -4.1160849247    2.6681901641   -2.6791696006
C       -1.8561045505    3.5450168347   -2.6604331985
C       -3.9298389479   -0.3615328136   -0.4113103144
C       -0.0451268363    0.1224039829   -0.5484851954
C       -2.7966021903    2.5930402534   -0.6208792907
C       -2.1494012207    1.1912854944   -0.7143233466
N       -3.0612993347    3.2782465351   -1.8825337179
O       -2.7769159065    0.2437407705    0.1509254055
O       -0.8055167895    1.3132446392   -0.3488647241
H       -5.0210789854    2.5606464552   -2.0721870585
H       -3.8602951917    1.6731952714   -3.0910028671
H       -4.3554317132    3.3212638213   -3.5252820522
H       -1.1143075968    4.0399998028   -2.0269223164
H       -2.1005989791    4.2136865603   -3.4930287859
H       -1.3843729184    2.6385632915   -3.0827182598
H       -4.2898630746   -1.0932055079    0.3151764841
H       -3.6943180750   -0.8768663412   -1.3548521662
H       -4.7299144353    0.3675269352   -0.6042010822
H        0.9891639293    0.3673561231   -0.2988934954
H       -0.0960491475   -0.2021056133   -1.5985770311
H       -0.4000051791   -0.6870383794    0.0971275113
H       -3.7437307571    2.4981977730   -0.0799830301
H       -2.1353008709    3.2164925001   -0.0113238660
H       -2.2178880739    0.7970522790   -1.7458937017
24   
torsion grid (-120,)
C       -4.2220590429    2.6750010804   -2.5170128078
C       -1.9708033244    3.5234609715   -2.8035005366
C       -3.8840583053   -0.3330280598   -0.6571218228
C       -0.0508476408    0.0543227929   -0.3193036573
C       -2.6558206558    2.6668388410   -0.6245249483
C       -2.0668322090    1.2339451533   -0.7050785792
N       -3.0718014168    3.2922170345   -1.8758374535
O       -2.8181342435    0.2810230346    0.0475860327
O       -0.7664203920    1.2818687542   -0.1902893902
H       -5.0451248843    2.5954842254   -1.7994991928
H       -4.0279898720    1.6670340719   -2.9303148015
H       -4.5588258023    3.3091468843   -3.3444060080
H       -1.1588500876    4.0429259802   -2.2855173792
H       -2.3144439704    4.1594356688   -3.6266260367
H       -1.5523710026    2.6004051133   -3.2466811049
H       -4.2612346655   -1.1359370935   -0.0195389825
H       -3.5427621718   -0.7637766701   -1.6104944476
H       -4.7040961477    0.3673543367   -0.8646659133
H        0.9633223543    0.2464134884    0.0367195279
H       -0.0099012109   -0.2650831659   -1.3715301320
H       -0.5102264852   -0.7379298767    0.2798799048
H       -3.5192028556    2.6355559640    0.0487367254
H       -1.8989525951    3.3029389482   -0.1566487214
H       -2.0377648424    0.8819603485   -1.7538867934
24   
torsion grid (-105,)
C       -1.7446347364    4.1514969102   -1.2656613922
C       -4.0087773216    4.2973273414   -2.0559214333
C       -2.3166353116   -1.0352508431   -1.9461130901
C       -0.9454025732    1.2458068570    0.9630592324
C       -3.2925997965    2.3393533361   -0.8326287338
C       -2.3855750250    1.0996574559   -0.9309308495
N       -2.8952104740    3.4017726901   -1.7574341642
O       -3.0993214328    0.1103422010   -1.6144446180
O       -2.0356396227    0.5764508625    0.3514106533
H       -0.8941805313    3.4837752667   -1.1002109707
H       -1.9516539827    4.6801334018   -0.3142738443
H       -1.4423669555    4.8945970785   -2.0103275155
H       -4.8347263572    3.7271201651   -2.4913772047
H       -3.6909184516    5.0467744076   -2.7881938902
H       -4.3890454013    4.8324947471   -1.1643618250
H       -2.9627345403   -1.6948996799   -2.5288922323
H       -1.9725521583   -1.5557868853   -1.0465309510
H       -1.4471719474   -0.7507918842   -2.5568710465
H       -0.7330008266    0.7194606897    1.8962296585
H       -1.1794985949    2.2948428078    1.1948826443
H       -0.0481925794    1.2203972039    0.3256552026
H       -4.3036484110    2.0099433751   -1.0810538471
H       -3.3127541317    2.6912020761    0.2147609065
H       -1.4569136406    1.3411314351   -1.4782304933
24   
torsion grid (-90,)
C       -1.7568878954    4.1816420696   -1.4623319888
C       -4.0819701700    4.2174726420   -2.0739636440
C       -2.2764718737   -0.9060168233   -2.0448382098
C       -1.0103072737    1.0590306947    1.1058665893
C       -3.2153992692    2.3977526392   -0.7298266076
C       -2.3527140740    1.1361503943   -0.8586217596
N       -2.9282838102    3.3729562589   -1.7816613226
O       -3.0468223219    0.2319905657   -1.6652795434
O       -2.1245697473    0.5218847580    0.4109262470
H       -0.8881235977    3.5412366734   -1.2817488791
H       -1.9038149973    4.8142711844   -0.5646700191
H       -1.5168140624    4.8363864638   -2.3061221571
H       -4.9261578242    3.5943327230   -2.3832924212
H       -3.8404920767    4.8947719222   -2.8998816775
H       -4.4020043967    4.8339377650   -1.2115745444
H       -2.9070332019   -1.5023628861   -2.7073404337
H       -1.9919925217   -1.5026921381   -1.1715939757
H       -1.3702794352   -0.6012181682   -2.5888018569
H       -0.9183300868    0.4999308026    2.0396034444
H       -1.1430920444    2.1244103441    1.3446987406
H       -0.0817354178    0.9444240630    0.5260168448
H       -4.2557695706    2.0730892851   -0.8069125949
H       -3.0835332264    2.8290845718    0.2784053265
H       -1.3744134331    1.3732494193   -1.3137701783
24   
torsion grid (-75,)
C       -1.7687845574    4.1877931907   -1.7047429470
C       -4.1531675967    4.1986821115   -2.0209563907
C       -2.1866950514   -0.7789617703   -2.0980198397
C       -1.1175859928    0.8903857573    1.2447618536
C       -3.1258713929    2.4737362261   -0.6679848387
C       -2.3017740462    1.1922673145   -0.8052479356
N       -2.9712977688    3.3693747898   -1.8121590126
O       -2.9440530764    0.3703910999   -1.7303032102
O       -2.2272670259    0.5073640734    0.4470073096
H       -0.8836184429    3.5541633604   -1.5947233590
H       -1.7973265776    4.8845795613   -0.8434420631
H       -1.6407803396    4.7790617390   -2.6170768850
H       -5.0276531942    3.5609167566   -2.1795610586
H       -4.0156994246    4.8127965644   -2.9171444318
H       -4.3668317384    4.8783067168   -1.1729126040
H       -2.7685303297   -1.3067296392   -2.8563217899
H       -2.0190762618   -1.4374038596   -1.2386418965
H       -1.2166108659   -0.4879138481   -2.5278329576
H       -1.1500900299    0.2774746783    2.1483182056
H       -1.1602140499    1.9497638559    1.5366005151
H       -0.1656801889    0.7091610843    0.7229821077
H       -4.1695260195    2.1571505223   -0.5917855068
H       -2.8662457311    2.9689218201    0.2851414153
H       -1.2724845494    1.4094525320   -1.1445048314
24   
torsion grid (-60,)
C       -1.8525683710    3.9670169006   -2.0731583197
C       -4.2094021457    4.3219211453   -1.7553363915
C       -1.9275953388   -0.6902577439   -2.0831303555
C       -1.3381451051    0.7549419639    1.3962898045
C       -3.1378196952    2.4818103900   -0.6491277377
C       -2.2672973293    1.2298761988   -0.7591342188
N       -3.1426324591    3.3302042405   -1.8352292052
O       -2.7330746814    0.4544451678   -1.8177525432
O       -2.3698074841    0.4860036871    0.4581998421
H       -1.0826987854    3.2147443891   -2.2654936300
H       -1.5169749352    4.5977902622   -1.2253730873
H       -1.9183690783    4.6023577867   -2.9617115739
H       -5.1749383081    3.8177977371   -1.6490524273
H       -4.2344606794    4.9099892171   -2.6784517098
H       -4.0916914988    5.0237869341   -0.9058861483
H       -2.3509075969   -1.1710003011   -2.9671945030
H       -1.9393946249   -1.3906038112   -1.2409540202
H       -0.8879044559   -0.3982642117   -2.2960312463
H       -1.5048693503    0.0911142343    2.2476623554
H       -1.3602944804    1.7950253880    1.7515263643
H       -0.3439924219    0.5493480597    0.9719256494
H       -4.1567338444    2.1274023339   -0.4670367631
H       -2.8170546868    3.0350045320    0.2561101268
H       -1.2019037734    1.4792974793   -0.9150319287
24   
torsion grid (-45,)
C       -1.9673612882    3.7909770840   -2.3552834221
C       -4.1905422193    4.3975463224   -1.6557239252
C       -1.7261179972   -0.5465655945   -2.1239138930
C       -1.4868989473    0.6211996672    1.4540537224
C       -3.1017953474    2.5345687048   -0.6174052128
C       -2.2245101537    1.2834735106   -0.7286400253
N       -3.2444379746    3.3045827547   -1.8461577737
O       -2.5559012623    0.5872420738   -1.8889657610
O       -2.4454541505    0.4607951467    0.4175664208
H       -1.3249524434    2.9479616633   -2.6234228009
H       -1.4248387486    4.4322423114   -1.6316349452
H       -2.1379471691    4.3776764718   -3.2632714700
H       -5.1586692429    3.9968971622   -1.3382141731
H       -4.3368429554    4.9257805270   -2.6034247647
H       -3.8601738262    5.1366600959   -0.8987894182
H       -2.0289646323   -0.9596778197   -3.0880081833
H       -1.8527814826   -1.3031076737   -1.3420749583
H       -0.6658668024   -0.2539478399   -2.1742810188
H       -1.7342437107   -0.1098855843    2.2271068213
H       -1.5199856662    1.6265973473    1.8966796864
H       -0.4659636572    0.4278516107    1.0930015289
H       -4.0949608107    2.1895059213   -0.3122325513
H       -2.6975280542    3.1438624843    0.2165622039
H       -1.1504857592    1.5478619883   -0.7522873756
24   
torsion grid (-30,)
C       -2.0819686549    3.7260564572   -2.4913673610
C       -4.1795218415    4.3974583169   -1.5214375512
C       -1.7229918519   -0.4934259339   -2.2168367991
C       -1.7571865912    0.5923297241    1.5412739345
C       -2.9620279634    2.5799027461   -0.5491261605
C       -2.1787391038    1.2619804268   -0.7168140427
N       -3.2796748021    3.2807385488   -1.7859819375
O       -2.4991276150    0.6680881371   -1.9332009541
O       -2.4913051777    0.3629094966    0.3468418630
H       -1.4726371455    2.8626124212   -2.7686705837
H       -1.4611794291    4.4220693760   -1.8919087119
H       -2.3713727410    4.2402936555   -3.4132959094
H       -5.0993715782    4.0299040017   -1.0551724951
H       -4.4483368879    4.8815789655   -2.4658470772
H       -3.7401223038    5.1671284975   -0.8557798802
H       -1.9991869827   -0.8112768629   -3.2241315414
H       -1.9318754042   -1.2978249843   -1.5043261948
H       -0.6470105023   -0.2615976138   -2.1930029602
H       -1.9800246840   -0.2391095812    2.2137929558
H       -2.0474926083    1.5310593239    2.0329520994
H       -0.6739243808    0.6160375451    1.3488813266
H       -3.9067403918    2.3158207931   -0.0622601185
H       -2.3979952730    3.2195638806    0.1596704128
H       -1.0876270976    1.4521572849   -0.6795453598
24   
torsion grid (-15,)
C       -2.1913236661    3.7181515859   -2.6089940670
C       -4.1843703053    4.3730160349   -1.4340323522
C       -1.6482854646   -0.4570118550   -2.2383291507
C       -1.9383143371    0.5411151938    1.5637817993
C       -2.7955880747    2.6441377150   -0.5270153786
C       -2.1009669305    1.2679801686   -0.7030807279
N       -3.2827496247    3.2703907615   -1.7484745553
O       -2.3725915164    0.7390976718   -1.9597130732
O       -2.5435675083    0.3462905976    0.2941594165
H       -1.5721362020    2.8650011496   -2.8933201523
H       -1.5487645247    4.4801330244   -2.1235393189
H       -2.6027606663    4.1555339315   -3.5243397618
H       -5.0357018377    4.0036257599   -0.8532897082
H       -4.5700924047    4.8038861005   -2.3636205956
H       -3.6999703339    5.1862916877   -0.8573352820
H       -1.8720425560   -0.7187586035   -3.2744208461
H       -1.9549849038   -1.2725275852   -1.5759497148
H       -0.5648470313   -0.2939674775   -2.1316285248
H       -2.2625310737   -0.2855083876    2.1998481147
H       -2.2478436986    1.4869225850    2.0306091044
H       -0.8399797391    0.5285147096    1.4917264096
H       -3.6618529851    2.4671595573    0.1185695649
H       -2.1067939216    3.3091423613    0.0319041311
H       -1.0048368806    1.3782867381   -0.5825296124
24   
torsion grid (0,)
C       -2.3204735330    3.7275766247   -2.6900141203
C       -4.2047496110    4.3540239897   -1.3373584053
C       -1.5277933121   -0.4080669491   -2.1786881422
C       -2.0910277200    0.5018503220    1.5917795490
C       -2.6435361319    2.7332383260   -0.5056705474
C       -2.0227638327    1.3137930842   -0.6504633484
N       -3.2885016000    3.2763232810   -1.6939695272
O       -2.2114600822    0.8196678201   -1.9364409189
O       -2.6122118717    0.3976654908    0.2761591109
H       -1.6793654700    2.8955935643   -2.9847304576
H       -1.6840940812    4.5559526200   -2.3182908817
H       -2.8502427441    4.0804221397   -3.5807980383
H       -4.9759907691    3.9789529282   -0.6570266838
H       -4.7014220732    4.7225276662   -2.2407637246
H       -3.7033782492    5.2149607615   -0.8513053385
H       -1.6850962036   -0.6459767939   -3.2326299548
H       -1.9256629373   -1.2140332369   -1.5543959615
H       -0.4488889437   -0.3020382551   -1.9883901902
H       -2.5537904104   -0.2933400466    2.1804036510
H       -2.3292365343    1.4683749199    2.0593883022
H       -0.9983171593    0.3681788775    1.6038244720
H       -3.4052213738    2.6527199534    0.2749965237
H       -1.8620785694    3.4181388077   -0.1196396277
H       -0.9395389370    1.3551051522   -0.4236487730
24   
torsion grid (15,)
C       -2.4557824576    3.7332622516   -2.7671952577
C       -4.2019141758    4.3609215445   -1.2406504830
C       -1.4336163513   -0.3635816678   -2.1213080861
C       -2.2673681365    0.4874331702    1.5755625125
C       -2.4929715372    2.8301581200   -0.5176155629
C       -1.9575110264    1.3760681097   -0.6196470918
N       -3.2861839389    3.3002065211   -1.6465816409
O       -2.0569794473    0.9038561122   -1.9243038600
O       -2.6974174872    0.4875185858    0.2246652108
H       -1.8101387656    2.9149156558   -3.0865190757
H       -1.8246819533    4.6083094366   -2.5116152547
H       -3.0971252910    4.0119763480   -3.6096997018
H       -4.8793673557    3.9931661245   -0.4634967667
H       -4.8087355162    4.6654379128   -2.0996082556
H       -3.6870784005    5.2633042309   -0.8540893152
H       -1.5112304343   -0.5835301290   -3.1879749365
H       -1.9374257226   -1.1456660610   -1.5451212332
H       -0.3714485984   -0.3293307269   -1.8353957804
H       -2.8530741111   -0.2742769468    2.0950520674
H       -2.4373031737    1.4558428629    2.0694249641
H       -1.1983679275    0.2374218435    1.6591521199
H       -3.1198014156    2.8624903397    0.3771973929
H       -1.6353825905    3.5050618570   -0.3251828412
H       -0.9030164366    1.3480149740   -0.2834177293
24   
torsion grid (30,)
C       -2.5856683300    3.6903876237   -2.8379529504
C       -4.1567444902    4.3313815744   -1.1348322703
C       -1.3206346927   -0.3702278157   -2.1125078425
C       -2.4371860119    0.4544583463    1.4916165953
C       -2.3304951323    2.8608739051   -0.5712662794
C       -1.8765485505    1.3859932696   -0.6377649093
N       -3.2628948765    3.2811446949   -1.6103924229
O       -1.8737102327    0.9349081820   -1.9549026248
O       -2.7489435939    0.5330011886    0.1115600364
H       -1.9568847292    2.8783165889   -3.2020156509
H       -1.9564058176    4.5914825354   -2.6921596874
H       -3.3322631787    3.9187586184   -3.6056326445
H       -4.7273710037    3.9744948620   -0.2716394256
H       -4.8696400994    4.5877704938   -1.9253422469
H       -3.6286130924    5.2611525565   -0.8427555772
H       -1.3014662250   -0.5705799505   -3.1856651540
H       -1.9342204171   -1.1219861730   -1.6068611166
H       -0.2941027906   -0.4137109413   -1.7186061006
H       -3.1218133716   -0.2749077689    1.9304226217
H       -2.5746461223    1.4160525762    2.0086843153
H       -1.4016179558    0.1176339418    1.6544258588
H       -2.8045324735    2.9929361962    0.4048289395
H       -1.4260502872    3.5004975906   -0.5660472101
H       -0.8640576634    1.2995984197   -0.1972308280
24   
torsion grid (45,)
C       -2.7437821244    3.6309969583   -2.8664705871
C       -4.0956184704    4.3403632685   -1.0073098027
C       -1.1806181265   -0.3571199167   -2.0793329455
C       -2.6233234523    0.4923114035    1.4050545991
C       -2.1989033217    2.8971669364   -0.6149297846
C       -1.8049829516    1.4123602205   -0.6435699131
N       -3.2559795220    3.2756609386   -1.5452167240
O       -1.6764335522    0.9751903552   -1.9611949982
O       -2.7789121130    0.5886012683    0.0002669350
H       -2.1596661922    2.8051860135   -3.2710216293
H       -2.1077736733    4.5386690395   -2.8427829872
H       -3.5845223009    3.8239949003   -3.5409232251
H       -4.5491703747    4.0190898307   -0.0642897470
H       -4.9058178991    4.5557321930   -1.7116335955
H       -3.5468338736    5.2859979297   -0.8254362101
H       -1.0447354479   -0.5435852714   -3.1465382850
H       -1.8892871832   -1.0799175367   -1.6641397084
H       -0.2118948314   -0.4625899801   -1.5683228533
H       -3.3669137706   -0.2261934363    1.7574118547
H       -2.7988822939    1.4520163555    1.9135116421
H       -1.6194378185    0.1319643534    1.6785065531
H       -2.5271628146    3.1092487283    0.4067442197
H       -1.2822890449    3.4971836827   -0.7750109356
H       -0.8448609673    1.2911249630   -0.1028504522
24   
torsion grid (60,)
C       -2.9941597135    3.4270445346   -2.8191793814
C       -3.9241709375    4.4285116743   -0.8426266921
C       -0.9370412086   -0.3332914136   -2.0838303031
C       -2.8846222028    0.5581074348    1.2562539689
C       -2.1016870630    2.8712263891   -0.6201621236
C       -1.7185779391    1.3859711938   -0.6585491161
N       -3.2775297215    3.2434615784   -1.3964248593
O       -1.4487155639    0.9942498192   -1.9722222760
O       -2.7322529968    0.5265836879   -0.1517154751
H       -2.5671561259    2.5157436270   -3.2344203949
H       -2.2896742124    4.2623389635   -3.0039701270
H       -3.9283355454    3.6487372074   -3.3455602837
H       -4.2156789653    4.2472330876    0.1972094100
H       -4.8337301489    4.6467756204   -1.4115636221
H       -3.2836695440    5.3324666987   -0.8697810212
H       -0.6663497697   -0.4731971005   -3.1323832143
H       -1.6877426988   -1.0734017326   -1.7917029557
H       -0.0402844419   -0.4601754563   -1.4593355552
H       -3.5473920341   -0.2689343651    1.5210494129
H       -3.3404791733    1.4958047998    1.6031831388
H       -1.9211211128    0.4217464427    1.7720721077
H       -2.2876218016    3.1163637298    0.4299192921
H       -1.2042194636    3.4489740123   -0.9164502276
H       -0.8112172416    1.2568220328   -0.0321645954
24   
torsion grid (75,)
C       -3.3597814803    3.0521979282   -2.5908897387
C       -3.6565075271    4.5910993757   -0.7647258838
C       -0.6402220273   -0.1928092968   -2.1332508287
C       -3.1756402545    0.6025128052    0.9670175121
C       -2.0213263703    2.8607075706   -0.5477433885
C       -1.6188926389    1.3839520348   -0.6648358614
N       -3.3015039450    3.2264081470   -1.1399937697
O       -1.2032342985    1.1085590438   -1.9724824832
O       -2.6623351627    0.4732889085   -0.3501817707
H       -3.1973091786    2.0074771389   -2.8506223750
H       -2.6049267406    3.6617424417   -3.1229699593
H       -4.3526280777    3.3520648335   -2.9416591835
H       -3.6904247774    4.6845479497    0.3262851565
H       -4.6505532432    4.8319452736   -1.1547415505
H       -2.9462883551    5.3483819524   -1.1512023530
H       -0.2454170094   -0.2355336628   -3.1504202831
H       -1.3945019237   -0.9731599623   -1.9939687394
H        0.1813157863   -0.3537976975   -1.4195823634
H       -3.8310292265   -0.2553780212    1.1336474759
H       -3.7581826643    1.5249588621    1.0796932818
H       -2.3705980167    0.5833906653    1.7183919455
H       -2.0665455734    3.1031760049    0.5192363416
H       -1.1774462238    3.4449518498   -0.9660464455
H       -0.7772535126    1.2102410435    0.0372050872
24   
torsion grid (90,)
C       -3.5182096500    2.9591619660   -2.4648688346
C       -3.5949070998    4.6409942257   -0.7422909964
C       -0.5348997525   -0.1800199539   -2.0815650935
C       -3.2763789673    0.6015344365    0.8000975476
C       -1.9535281561    2.9025123841   -0.5980624236
C       -1.6027408226    1.4040792721   -0.6829940490
N       -3.2975237974    3.2457781062   -1.0471318511
O       -1.0431917416    1.1455900578   -1.9418046998
O       -2.7080474793    0.5369237006   -0.5016414938
H       -3.3571382134    1.8992081341   -2.6594311290
H       -2.8465871797    3.5396631010   -3.1248978024
H       -4.5531944675    3.2081093103   -2.7214377590
H       -3.4967522434    4.8188933390    0.3342905490
H       -4.6269839028    4.8664715125   -1.0295021078
H       -2.9310445702    5.3539543623   -1.2691092518
H       -0.0251445024   -0.2159642611   -3.0465654709
H       -1.3393897108   -0.9214773256   -2.0584206730
H        0.1865913273   -0.4075884496   -1.2826473409
H       -4.0203953502   -0.1960135592    0.8569342522
H       -3.7675242303    1.5667799774    0.9688080114
H       -2.5141452111    0.4320826226    1.5766759519
H       -1.8722597566    3.2062199257    0.4516355346
H       -1.1627147817    3.4446144479   -1.1499121665
H       -0.8508742429    1.1781945136    0.1007670632
24   
torsion grid (105,)
C       -3.6516086394    2.9637498746   -2.3756431672
C       -3.5505810572    4.6690329075   -0.6794464574
C       -0.4117862320   -0.2227030231   -1.9593091517
C       -3.3249058262    0.5776234276    0.6657732753
C       -1.8920745474    2.9333014413   -0.7100954568
C       -1.5825881808    1.4144414602   -0.7113417000
N       -3.2838361354    3.2687468164   -0.9918583895
O       -0.8977621493    1.1172006518   -1.8978636445
O       -2.7235081126    0.5808706784   -0.6237583202
H       -3.4793230474    1.9066597321   -2.5790152754
H       -3.0738060454    3.5609546021   -3.1062270389
H       -4.7157565207    3.1765947143   -2.5220603284
H       -3.3359688370    4.8650638767    0.3766684048
H       -4.6089610662    4.8867264710   -0.8558853263
H       -2.9521829443    5.3741705934   -1.2883078234
H        0.1917329352   -0.2919837695   -2.8666832520
H       -1.2330536387   -0.9445304713   -2.0033074892
H        0.2192076559   -0.4492668223   -1.0868357667
H       -4.1231737406   -0.1673042263    0.6369521190
H       -3.7522105451    1.5581538311    0.9034912919
H       -2.5969421523    0.2901961044    1.4405083441
H       -1.6583875450    3.3237078745    0.2862198813
H       -1.1868863734    3.4077932889   -1.4157700003
H       -0.9245891563    1.1812201923    0.1497525810
24   
torsion grid (120,)
C       -3.8069741297    2.9961629847   -2.2829841384
C       -3.4844394440    4.7039501796   -0.6204037843
C       -0.2747633511   -0.2589586050   -1.7967156464
C       -3.3759677052    0.5221744433    0.5111649600
C       -1.8559369774    2.9486197684   -0.8531459945
C       -1.5710314297    1.4230760068   -0.7492776407
N       -3.2699147080    3.2991397266   -0.9548846506
O       -0.7714209399    1.0775954931   -1.8473197286
O       -2.7260844579    0.6021492891   -0.7531930404
H       -3.6564871827    1.9403654812   -2.5089528805
H       -3.3265635454    3.6004230345   -3.0760963122
H       -4.8821092831    3.2040930346   -2.2969747785
H       -3.1466135875    4.9023587259    0.4022767524
H       -4.5540776113    4.9316043652   -0.6735090772
H       -2.9552344161    5.4002041342   -1.2993175738
H        0.4006282104   -0.3713627701   -2.6473113667
H       -1.0868569690   -0.9890017955   -1.8685116613
H        0.2846998711   -0.4329600291   -0.8654013385
H       -4.1913087707   -0.1959562359    0.3979346051
H       -3.7846554028    1.4945117159    0.8065535877
H       -2.6843761509    0.1572924001    1.2864992872
H       -1.4589875629    3.4257106070    0.0483697671
H       -1.2688245339    3.3333211727   -1.7052200506
H       -1.0149371016    1.2125357738    0.1849057545
24   
torsion grid (135,)
C       -3.9614073247    3.0340119003   -2.1715369167
C       -3.3905764548    4.7315722714   -0.5679001487
C       -0.1527357728   -0.2851278720   -1.6158412042
C       -3.4297035408    0.4472395956    0.3435138064
C       -1.8400768992    2.9370172068   -1.0082130512
C       -1.5702102081    1.4227471411   -0.7912976937
N       -3.2476452513    3.3230790047   -0.9262437352
O       -0.6661694794    1.0346781626   -1.7888406307
O       -2.7222103389    0.5982369820   -0.8837504897
H       -3.8570251017    1.9776487222   -2.4191849038
H       -3.5815935234    3.6362679074   -3.0191418390
H       -5.0257225135    3.2579588557   -2.0425498158
H       -2.9230754385    4.9215754893    0.4037885890
H       -4.4537118360    4.9802546756   -0.4855361482
H       -2.9386244508    5.4185821384   -1.3090474639
H        0.5816079101   -0.4394741526   -2.4090194984
H       -0.9474852706   -1.0334362672   -1.6962774491
H        0.3434723541   -0.3879256704   -0.6393066446
H       -4.2335835200   -0.2678426475    0.1533184000
H       -3.8556866232    1.4003199009    0.6742842338
H       -2.7722906227    0.0430763337    1.1288068140
H       -1.2861368458    3.4852520346   -0.2405114126
H       -1.3967220517    3.2136635846   -1.9800831744
H       -1.1205485170    1.2553601874    0.2056052541
24   
torsion grid (150,)
C       -4.1004356559    3.0735861746   -2.0313630045
C       -3.2817581881    4.7584083157   -0.5247174603
C       -0.0461335621   -0.2749283563   -1.4263178229
C       -3.4694198341    0.3696507887    0.1729495357
C       -1.8436563289    2.9185540000   -1.1569259231
C       -1.5741136335    1.4325981722   -0.8320567547
N       -3.2183580946    3.3471528457   -0.8955639436
O       -0.5697516817    1.0194765202   -1.7173424664
O       -2.7027488256    0.5858589429   -1.0087446021
H       -4.0473408161    2.0169100885   -2.2936684400
H       -3.8301385607    3.6714575609   -2.9229472844
H       -5.1333031651    3.3153959965   -1.7585785276
H       -2.6855541285    4.9376156851    0.3757333479
H       -4.3186746179    5.0307190390   -0.3018177898
H       -2.9179681969    5.4355205058   -1.3212880126
H        0.7501953485   -0.4593403124   -2.1502259247
H       -0.8188246409   -1.0444453788   -1.5235620767
H        0.3747930748   -0.3096086880   -0.4104517903
H       -4.2408386660   -0.3595411033   -0.0863502942
H       -3.9376541598    1.2973261309    0.5186349234
H       -2.8438039638   -0.0459295304    0.9775168683
H       -1.1599675761    3.5144601488   -0.5453822618
H       -1.5576618104    3.0866204230   -2.2088471753
H       -1.2321958016    1.3236956291    0.2137194553
24   
torsion grid (165,)
C       -4.2158312264    3.1185871183   -1.8884998435
C       -3.1659452908    4.7844472488   -0.5075212451
C        0.0252572482   -0.2444672215   -1.2464207784
C       -3.4811717725    0.2741312361    0.0031508841
C       -1.8679199558    2.8962267388   -1.3072852007
C       -1.5886481976    1.4478586712   -0.8836880620
N       -3.1860731604    3.3725734579   -0.8801909158
O       -0.4852347590    1.0272165067   -1.6391742958
O       -2.6799389860    0.5699714758   -1.1377349939
H       -4.2144081804    2.0626792894   -2.1604165811
H       -4.0582897548    3.7146194855   -2.8078096328
H       -5.1996061625    3.3749941094   -1.4807104423
H       -2.4522729863    4.9480102705    0.3060991249
H       -4.1573203983    5.0815303654   -0.1495527805
H       -2.8945676403    5.4536567904   -1.3463532207
H        0.8951056891   -0.4410566074   -1.8764308541
H       -0.7213319334   -1.0319754042   -1.3937642641
H        0.3390799366   -0.2343020239   -0.1918323299
H       -4.2222244739   -0.4613265977   -0.3194674242
H       -3.9881096737    1.1693589202    0.3797357574
H       -2.8744102018   -0.1632919793    0.8099027087
H       -1.0897337801    3.5185842606   -0.8558466747
H       -1.7374880415    2.9643671746   -2.3995779222
H       -1.3577569677    1.4051119886    0.1960063610
24   
torsion grid (180,)
C       -4.3035981252    3.1672363365   -1.7580216322
C       -3.0477787659    4.8281176206   -0.5522770465
C        0.0615843370   -0.1970959819   -1.0777428896
C       -3.4500236904    0.1318432238   -0.1703779620
C       -1.9086545545    2.8766068200   -1.4530833331
C       -1.6148107107    1.4674834377   -0.9417210183
N       -3.1524099669    3.4114460994   -0.8888550631
O       -0.4126520899    1.0627313178   -1.5434658663
O       -2.6538645255    0.5525367270   -1.2746663162
H       -4.3568591951    2.1081596334   -2.0134594571
H       -4.2508824121    3.7457980692   -2.7002161290
H       -5.2248447428    3.4494496803   -1.2368411651
H       -2.2344354571    4.9849255005    0.1631152056
H       -3.9783627531    5.1605521213   -0.0801374769
H       -2.8649161735    5.4742641473   -1.4321240398
H        1.0156531096   -0.3780044835   -1.5770181214
H       -0.6403103158   -1.0006494000   -1.3259455233
H        0.2225441156   -0.1798268620    0.0109450920
H       -4.1632862554   -0.5985294583   -0.5600778027
H       -3.9940922756    0.9722847464    0.2765650902
H       -2.8358457559   -0.3495290465    0.6043568486
H       -1.0672269975    3.5072073252   -1.1514867623
H       -1.9194146706    2.8576750279   -2.5541046120
H       -1.5051153192    1.4876568073    0.1564892804
