19   
torsion grid (-165,)
C        4.4405378381    1.7712143820    1.5216644743
C        5.0881134492    0.5494661086    1.8704717652
C        3.9054951158    1.9291763777    0.2759640052
C        5.1599939869   -0.4299238389    0.9242057922
C        3.9476774453    0.8886545347   -0.7395774138
C        4.5796123455   -1.4829674964   -2.6771048694
C        5.9671314288   -1.6519649326   -2.0945058326
C        4.7663421184   -1.4724478821   -1.1858807162
N        4.6405978600   -0.2907715848   -0.3408617162
O        3.4337811577    1.0065867721   -1.8555923709
H        4.3713161618    2.5749841348    2.2511123303
H        5.5175084337    0.3858279888    2.8520984389
H        3.3966493749    2.8395439107   -0.0229541569
H        5.6499587008   -1.3793545245    1.1156017915
H        4.3426211042   -0.5472760770   -3.1613629997
H        4.0794335801   -2.3571752234   -3.0832929725
H        6.4492964833   -2.6252216209   -2.1148798273
H        6.6391403265   -0.8029383625   -2.1779645348
H        4.4219494672   -2.3607550067   -0.6631331248
19   
torsion grid (-150,)
C        4.4969654329    1.7918472819    1.5030869145
C        5.2294594816    0.6063953052    1.8121154147
C        3.8473853091    1.9076950797    0.3077055201
C        5.2841277685   -0.3768825285    0.8686008669
C        3.8353810404    0.8426053592   -0.6830922234
C        4.7382316640   -1.3258851679   -2.7015716000
C        5.9883266377   -1.7777269871   -1.9736430276
C        4.7246759907   -1.4411777371   -1.2075913331
N        4.6773430207   -0.2629166542   -0.3590841981
O        3.1666150042    0.8690807512   -1.7184241609
H        4.4505211207    2.6014337612    2.2280285620
H        5.7364150280    0.4761772557    2.7612339598
H        3.2621742165    2.7846569836    0.0515389710
H        5.8351643216   -1.2995483938    1.0219845060
H        4.7294290869   -0.3298875175   -3.1232171123
H        4.1549173119   -2.0575771321   -3.2509619568
H        6.2884535199   -2.8207511292   -2.0170758240
H        6.8060409296   -1.0662957736   -1.9049851685
H        4.1634336995   -2.2740748747   -0.7900251050
19   
torsion grid (-135,)
C        4.4483380266    1.7744940848    1.4779897698
C        5.2848532916    0.6471638372    1.7367437997
C        3.6881701847    1.8275079997    0.3440229574
C        5.3226812176   -0.3512281708    0.8071841206
C        3.6667339461    0.7466704839   -0.6275530748
C        4.8128104393   -1.2668075224   -2.7035995340
C        5.9275226521   -1.8738545940   -1.8755784787
C        4.6241693948   -1.4554164723   -1.2291611624
N        4.6005513480   -0.2966995919   -0.3586085048
O        2.9226604099    0.6976668009   -1.6093032162
H        4.4123501027    2.5925686300    2.1939842531
H        5.8826079532    0.5724121215    2.6377678411
H        3.0273352236    2.6611294486    0.1306123077
H        5.9418815794   -1.2349176580    0.9234850581
H        4.9416464472   -0.2504819740   -3.0555752152
H        4.2311517028   -1.9046529246   -3.3605050315
H        6.1303678660   -2.9379161073   -1.9534482441
H        6.7989320953   -1.2548496203   -1.6828215891
H        3.9390477557   -2.2402012307   -0.9169737654
19   
torsion grid (-120,)
C        4.4573144120    1.7707504682    1.4621945762
C        5.3680845006    0.6907989909    1.6618635945
C        3.6079310124    1.7740446228    0.3910075171
C        5.3812633098   -0.3195601850    0.7429045890
C        3.5752731901    0.6889752769   -0.5730823615
C        4.9369343517   -1.2109239642   -2.7031831774
C        5.8876673212   -1.9622931078   -1.7936029649
C        4.5701994207   -1.4413907997   -1.2664837030
N        4.5607261485   -0.3160700443   -0.3544633433
O        2.7853704521    0.5949497630   -1.5156148516
H        4.4369367660    2.5941334282    2.1727162717
H        6.0392777563    0.6582488456    2.5122305228
H        2.8954695491    2.5746451862    0.2220714867
H        6.0448294762   -1.1737082697    0.8239095812
H        5.2055475562   -0.1979343065   -2.9816974992
H        4.3727763576   -1.7559765866   -3.4523553678
H        5.9913661469   -3.0372511473   -1.9066341006
H        6.7953250012   -1.4484455045   -1.4911545823
H        3.7775258420   -2.1590155562   -1.0717564961
19   
torsion grid (-105,)
C        4.4463103730    1.7750956534    1.4519619030
C        5.4284534231    0.7500787556    1.5836425718
C        3.5164974032    1.7234519106    0.4502366290
C        5.4241091270   -0.2707053754    0.6744362548
C        3.4817019060    0.6387363779   -0.5116663454
C        5.0487285198   -1.1668174670   -2.6931388648
C        5.8192784323   -2.0517850970   -1.7343904639
C        4.5204588267   -1.4127534753   -1.3067470878
N        4.5156070707   -0.3270154664   -0.3470192275
O        2.6536625729    0.5066418025   -1.4170085893
H        4.4356460922    2.6019575461    2.1586039569
H        6.1646221790    0.7618517685    2.3789771605
H        2.7535269911    2.4853987617    0.3302686785
H        6.1319900799   -1.0900228203    0.7199123949
H        5.4546734395   -0.1802324081   -2.8914886654
H        4.5088423444   -1.6156274024   -3.5201957592
H        5.8139342187   -3.1264802201   -1.8887973043
H        6.7529636987   -1.6604492519   -1.3428711848
H        3.6426216108   -2.0466475219   -1.2276471705
19   
torsion grid (-90,)
C        4.4388747717    1.7713956940    1.4586328591
C        5.4905678367    0.8115979506    1.5089323859
C        3.4436806240    1.6624882352    0.5263674122
C        5.4812979855   -0.2099383317    0.5995426455
C        3.4161403739    0.5888788145   -0.4464173348
C        5.1897400540   -1.1534041635   -2.6705116917
C        5.7523821989   -2.1560043209   -1.6820738035
C        4.5051609855   -1.3789451212   -1.3468406807
N        4.5015710685   -0.3294406273   -0.3459810083
O        2.5530397327    0.4263291328   -1.3141122185
H        4.4274987423    2.5939891533    2.1701639018
H        6.2821676249    0.8682177690    2.2470138898
H        2.6295345845    2.3767903568    0.4636930551
H        6.2394505671   -0.9830732220    0.5986379112
H        5.7316630484   -0.2195726061   -2.7843310210
H        4.6862733835   -1.5050022185   -3.5651447647
H        5.6261626230   -3.2158699670   -1.8809407372
H        6.6949952616   -1.9058733290   -1.2070161333
H        3.5592765334   -1.9078341316   -1.3787828702
19   
torsion grid (-75,)
C        4.4296562930    1.7909449925    1.4797717000
C        5.5442327878    0.9055991118    1.4372139616
C        3.3822290314    1.6272798264    0.6153368919
C        5.5360241909   -0.1049383916    0.5154197994
C        3.3627240674    0.5750690303   -0.3800462621
C        5.3503312032   -1.1464566700   -2.6261894437
C        5.6732237176   -2.2335327776   -1.6176593212
C        4.5071379228   -1.3105644504   -1.3846282410
N        4.5005619011   -0.2852309247   -0.3574791454
O        2.4624185639    0.3872045745   -1.2044699019
H        4.4124170436    2.6002601361    2.2061704369
H        6.3828168446    1.0072565570    2.1162035429
H        2.5204213658    2.2861845236    0.6197211833
H        6.3465370054   -0.8195490340    0.4508306357
H        6.0162080853   -0.2886998824   -2.6496700949
H        4.9098298738   -1.4130103909   -3.5816741759
H        5.4281462622   -3.2622872170   -1.8636659006
H        6.5885111487   -2.1293885117   -1.0452943917
H        3.5135629515   -1.7163625817   -1.5271505709
19   
torsion grid (-60,)
C        4.4217241859    1.7786388441    1.4428399833
C        5.5867157428    0.9717776540    1.3035373845
C        3.3361563657    1.5701692173    0.6375867827
C        5.5831006105   -0.0114693498    0.3532347420
C        3.3200553235    0.5475604462   -0.3885566223
C        5.5344482588   -1.1980307784   -2.6215924760
C        5.5790205325   -2.3209015491   -1.5993033068
C        4.5249242621   -1.2523399551   -1.4994058097
N        4.5091691272   -0.2381014233   -0.4605614214
O        2.3798171869    0.3304741898   -1.1600417867
H        4.3969793833    2.5638693813    2.1949383807
H        6.4601907340    1.1125987002    1.9294694202
H        2.4350460525    2.1690746223    0.7157611319
H        6.4392411691   -0.6592691627    0.2104722662
H        6.3057628324   -0.4364887479   -2.5458895537
H        5.1928664488   -1.4048510921   -3.6310364611
H        5.2355892005   -3.3079704294   -1.8937706757
H        6.4109671037   -2.3399434513   -0.9030964899
H        3.5116370428   -1.5218141944   -1.7653838916
19   
torsion grid (-45,)
C        4.4138850235    1.7538118708    1.4690740070
C        5.6184186595    1.0359154771    1.2199808374
C        3.2932563660    1.4991785757    0.7281130806
C        5.6160509567    0.0931861753    0.2301376132
C        3.2717944624    0.5102847378   -0.3310582057
C        5.6682390270   -1.2424361866   -2.5659487673
C        5.4583218889   -2.3581185083   -1.5557179063
C        4.5296204294   -1.1731892633   -1.5783451481
N        4.5072764085   -0.1771204545   -0.5217301741
O        2.2903979596    0.2485296170   -1.0347427357
H        4.3875333425    2.5074709389    2.2527320941
H        6.5219364750    1.2161093611    1.7906938185
H        2.3606677295    2.0286491889    0.8914270158
H        6.5057132882   -0.4814138029   -0.0008204893
H        6.5111974638   -0.5763412676   -2.4033275832
H        5.4260843232   -1.4179701096   -3.6095698478
H        5.0539894832   -3.3059676472   -1.8976806709
H        6.1755154400   -2.4508119773   -0.7456921358
H        3.5274158743   -1.3219566886   -1.9562304780
19   
torsion grid (-30,)
C        4.4063430259    1.7336078479    1.4935145274
C        5.6426794344    1.1128409946    1.1553894141
C        3.2666370008    1.4230561535    0.8047915146
C        5.6528456747    0.2089123524    0.1300120725
C        3.2547339214    0.4633992136   -0.2809790811
C        5.7792501293   -1.3015752642   -2.5049946171
C        5.3328195174   -2.3739880142   -1.5266440424
C        4.5564596149   -1.0862091830   -1.6518439732
N        4.5257861436   -0.1159687095   -0.5713873433
O        2.2536250224    0.1426736480   -0.9303810521
H        4.3707697440    2.4580315684    2.3038709225
H        6.5614573077    1.3391185617    1.6837045530
H        2.3094069946    1.8771171250    1.0376487865
H        6.5665386948   -0.2927305829   -0.1676690426
H        6.6836299850   -0.7473086822   -2.2720517085
H        5.6188295656   -1.4598120617   -3.5670966031
H        4.8738056219   -3.2812640727   -1.9071831643
H        5.9318860569   -2.5138067300   -0.6310078664
H        3.5882559868   -1.1248171586   -2.1317965326
19   
torsion grid (-15,)
C        4.4005359516    1.7065995162    1.5282991024
C        5.6643480082    1.2033978947    1.1073006415
C        3.2561040300    1.3261510106    0.8835257174
C        5.6977370211    0.3424367381    0.0455433879
C        3.2678520657    0.3999276298   -0.2305022851
C        5.8661111658   -1.3747471796   -2.4390764090
C        5.1779595691   -2.3796050768   -1.5310739595
C        4.6032146757   -0.9949754917   -1.7151389705
N        4.5669916331   -0.0491054491   -0.6140707719
O        2.2653034555    0.0039546418   -0.8343310914
H        4.3475349909    2.3973385937    2.3667030273
H        6.5874651823    1.4886047154    1.5982868103
H        2.2776884671    1.6883564282    1.1806843071
H        6.6327315142   -0.0649023096   -0.3193215896
H        6.8221612497   -0.9733110296   -2.1193607147
H        5.7850364598   -1.5018603929   -3.5143613847
H        4.6452769825   -3.2188813399   -1.9673481842
H        5.6555697097   -2.5869086035   -0.5773331467
H        3.6955985944   -0.9136779968   -2.2978341165
19   
torsion grid (0,)
C        4.4086414806    1.7674723265    1.5570901633
C        5.6856467400    1.3743102803    1.0645318196
C        3.2659933308    1.3156079220    0.9560821520
C        5.7350642661    0.5408782133   -0.0188400264
C        3.2964062299    0.4171521522   -0.1798161625
C        5.9179565146   -1.4052201668   -2.3230331807
C        4.9892855674   -2.3082206163   -1.5261850130
C        4.6440460264   -0.8560934195   -1.7429625156
N        4.6059009274    0.0784485477   -0.6336094762
O        2.3041639703   -0.0468573191   -0.7505713508
H        4.3439528475    2.4324831467    2.4152911528
H        6.6065022213    1.7237400476    1.5167478730
H        2.2784523767    1.5933902012    1.3088839953
H        6.6773703425    0.2242897923   -0.4475697240
H        6.8787831319   -1.1650829564   -1.8808288374
H        5.9486564183   -1.5090799840   -3.4033287926
H        4.3945418237   -3.0568237612   -2.0399029520
H        5.3192780578   -2.5866009610   -0.5294613050
H        3.8332379892   -0.6564464310   -2.4321378533
19   
torsion grid (15,)
C        4.4146088586    1.7266665616    1.5663407736
C        5.6916480647    1.4546245428    0.9966325519
C        3.2821001092    1.1856104124    1.0221028988
C        5.7528829381    0.6372973545   -0.0983513630
C        3.3258852106    0.3137076914   -0.1342370446
C        5.9636089660   -1.4931876229   -2.2235343975
C        4.8635988307   -2.3088256193   -1.5624272436
C        4.6886566548   -0.8294323445   -1.7785956209
N        4.6337723048    0.0811261103   -0.6514927290
O        2.3489724051   -0.2134774636   -0.6747633339
H        4.3417543702    2.3721614903    2.4387341425
H        6.6017689587    1.8821027786    1.4010350894
H        2.2960748087    1.3738445091    1.4335616917
H        6.6899995641    0.4093958854   -0.5907068572
H        6.8793703387   -1.3547301626   -1.6587529744
H        6.1152156069   -1.5866416149   -3.2944727434
H        4.2585683318   -2.9817553595   -2.1611730963
H        5.0448853439   -2.6353172691   -0.5429118149
H        3.9828767153   -0.5436547003   -2.5503791249
19   
torsion grid (30,)
C        4.4285690614    1.7269054216    1.5535069139
C        5.6919002335    1.5457701632    0.9185500996
C        3.3095615754    1.1091277898    1.0665587112
C        5.7548970236    0.7288427260   -0.1759217728
C        3.3522321449    0.2523240187   -0.1022901718
C        5.9768824714   -1.5617407420   -2.1318051952
C        4.7375955665   -2.2778955818   -1.6255295622
C        4.7221988381   -0.7872844592   -1.8182480282
N        4.6501959387    0.0876849496   -0.6652988566
O        2.3830992975   -0.3136950388   -0.6156329877
H        4.3557654481    2.3661237212    2.4305610481
H        6.5884839701    2.0377890372    1.2772884221
H        2.3345282009    1.2331162699    1.5259125661
H        6.6779037002    0.5571255571   -0.7168305832
H        6.8216908376   -1.5022849465   -1.4530906274
H        6.2499719807   -1.6561282607   -3.1783250397
H        4.1467340467   -2.8769356888   -2.3103173804
H        4.7602012021   -2.6374953889   -0.6018192664
H        4.1362076008   -0.4173201131   -2.6537633600
19   
torsion grid (45,)
C        4.4203216123    1.7322721305    1.5539986360
C        5.6615352514    1.6342796661    0.8579465717
C        3.3252769955    1.0345583122    1.1255269228
C        5.7278606931    0.8104338984   -0.2298886142
C        3.3651195626    0.1819098310   -0.0482231943
C        5.9571201050   -1.6346672620   -2.0333934425
C        4.6109273383   -2.2393118743   -1.6928767657
C        4.7471520942   -0.7506137167   -1.8374829266
N        4.6495359542    0.0812813497   -0.6556339746
O        2.4030630951   -0.4258315528   -0.5243582057
H        4.3456548878    2.3727675940    2.4299983898
H        6.5379737778    2.1903362006    1.1699233668
H        2.3661080628    1.0994156788    1.6284235847
H        6.6341213399    0.6860176049   -0.8121899888
H        6.7161951378   -1.6455781975   -1.2570155744
H        6.3425446279   -1.7354770711   -3.0434895010
H        4.0511912442   -2.7639683084   -2.4597939825
H        4.4746065421   -2.6203978796   -0.6865886454
H        4.2938522171   -0.3010362362   -2.7166016351
19   
torsion grid (60,)
C        4.4251973294    1.7360210283    1.5591044234
C        5.6357363383    1.7244162620    0.8031619451
C        3.3700796306    0.9493388892    1.1914856712
C        5.7138607597    0.8877166263   -0.2725369583
C        3.4131301705    0.0939604674    0.0178153647
C        5.9519827945   -1.7198525372   -1.9475975074
C        4.5312226192   -2.2013920990   -1.7738823824
C        4.8109513392   -0.7273660993   -1.8426789917
N        4.6808228477    0.0603366586   -0.6332902924
O        2.4630981756   -0.5630594858   -0.4133998889
H        4.3420987534    2.3821888904    2.4301744153
H        6.4797407785    2.3523565463    1.0640969471
H        2.4314167117    0.9513611452    1.7356037614
H        6.6014765989    0.8142091967   -0.8923436090
H        6.6182540301   -1.8055875164   -1.0941243776
H        6.4349217601   -1.8271245896   -2.9144584489
H        4.0136753793   -2.6455824656   -2.6175107787
H        4.2452463537   -2.5984553666   -0.8070119633
H        4.4998211641   -0.2019799298   -2.7420020830
19   
torsion grid (75,)
C        4.4438830159    1.7360794547    1.5632309791
C        5.6052943979    1.8116455636    0.7366469415
C        3.4444980176    0.8531545228    1.2692051450
C        5.6955275263    0.9557337153   -0.3215012441
C        3.4886561360   -0.0157079799    0.1036283234
C        5.9372371392   -1.8372078550   -1.8711640454
C        4.4703219212   -2.1779607830   -1.8673054651
C        4.8904779796   -0.7348421509   -1.8324738092
N        4.7266355392    0.0235321772   -0.6054466439
O        2.5561952587   -0.7333849291   -0.2636618204
H        4.3528184602    2.3926358011    2.4256707468
H        6.4030511101    2.5189297581    0.9319252600
H        2.5378229985    0.7894935994    1.8617010286
H        6.5536028627    0.9401671527   -0.9861887899
H        6.4963452323   -2.0106516233   -0.9563391205
H        6.5108924567   -1.9530248706   -2.7864047342
H        4.0077355239   -2.5296470148   -2.7837373741
H        4.0427437555   -2.5871540835   -0.9613227421
H        4.7337354040   -0.1442453732   -2.7315436627
19   
torsion grid (90,)
C        4.4507547472    1.8168729242    1.5755675763
C        5.5399760439    1.9414015831    0.6630012803
C        3.5123666988    0.8429282843    1.3913807963
C        5.6174482597    1.0502538935   -0.3662753512
C        3.5481736600   -0.0857732228    0.2720035106
C        5.7916808565   -1.9904845528   -1.6952075850
C        4.3125939118   -2.1228359008   -1.9467057486
C        4.9092021003   -0.7525731594   -1.7606261122
N        4.7026948108    0.0412317684   -0.5555955418
O        2.6644618362   -0.9174572270    0.0494126259
H        4.3663962584    2.5036562062    2.4147444175
H        6.2939899465    2.7127219089    0.7693788645
H        2.6604989974    0.7293348925    2.0535870195
H        6.4274601392    1.0734936950   -1.0884924398
H        6.1548048675   -2.2675441611   -0.7099337319
H        6.4946466369   -2.1564473375   -2.5068869654
H        3.9779250718   -2.3600808614   -2.9521665427
H        3.6875675100   -2.5076482979   -1.1542446292
H        4.9888690468   -0.1308480138   -2.6480231049
19   
torsion grid (105,)
C        4.4425263326    1.8241733101    1.5447416543
C        5.4700135990    2.0490938975    0.5835964406
C        3.6237783776    0.7373691149    1.4266021276
C        5.5841307439    1.1678437533   -0.4523099876
C        3.7594107408   -0.2344905191    0.3557429308
C        5.6975962758   -2.1080376188   -1.6168535642
C        4.2977828396   -1.9993823501   -2.1928579258
C        5.0355314593   -0.7565139897   -1.7678736598
N        4.7482456654    0.0895949512   -0.6124597025
O        3.0857064704   -1.2679686378    0.2796235778
H        4.3159184517    2.5155009861    2.3746906398
H        6.1501466475    2.8899762081    0.6542911239
H        2.8393331235    0.5230039777    2.1446997569
H        6.3451350933    1.2811840290   -1.2174394162
H        5.7664751088   -2.5001930483   -0.6069549471
H        6.5370381978   -2.3417264874   -2.2653029422
H        4.1739827254   -2.1173358922   -3.2659896265
H        3.4822018833   -2.3480297341   -1.5782552567
H        5.3988067197   -0.1426999270   -2.5860745884
19   
torsion grid (120,)
C        4.4250589390    1.8343597439    1.5285687711
C        5.3953171876    2.1275607548    0.5285664504
C        3.7045930883    0.6746247371    1.4635099256
C        5.5545766941    1.2368995430   -0.4947798349
C        3.8989686728   -0.3045696530    0.4115427150
C        5.5854373671   -2.2138333145   -1.5621738418
C        4.2752565013   -1.9055757356   -2.2717746154
C        5.1254774244   -0.7860474651   -1.7288807343
N        4.8125264775    0.0879861996   -0.6028791607
O        3.3370728794   -1.4060664746    0.3766058429
H        4.2638414927    2.5314473127    2.3475957930
H        5.9990245741    3.0270971838    0.5589445720
H        2.9696969878    0.4065007410    2.2151730854
H        6.2735516250    1.4050414795   -1.2897655953
H        5.4889037649   -2.6477966647   -0.5734603527
H        6.4504206039   -2.5329939072   -2.1363582571
H        4.2409825559   -1.9799856557   -3.3554434356
H        3.3699293443   -2.1693688607   -1.7457991383
H        5.6520418598   -0.2158917023   -2.4869068744
19   
torsion grid (135,)
C        4.4118643233    1.8298065550    1.5166410215
C        5.3218858008    2.1730264383    0.4775365743
C        3.7817867028    0.6164461055    1.5014423905
C        5.5302507987    1.2659658872   -0.5230747340
C        4.0062032807   -0.3639831037    0.4579344799
C        5.5105952467   -2.3047634275   -1.5457666865
C        4.2885195291   -1.8291563550   -2.3152639544
C        5.2249338946   -0.8292512177   -1.6836218585
N        4.8978542813    0.0502549807   -0.5667318169
O        3.4821960782   -1.4848334547    0.4304021252
H        4.2210445239    2.5333444765    2.3236966420
H        5.8445958523    3.1222484799    0.4610616209
H        3.0868879749    0.3150127747    2.2780818839
H        6.2100787765    1.4704779194   -1.3434397963
H        5.3102692339   -2.7655492941   -0.5869493444
H        6.3693240799   -2.6889727849   -2.0891520621
H        4.2992487399   -1.8708062263   -3.4010469275
H        3.3325495837   -2.0027135365   -1.8412451543
H        5.8635501386   -0.3005076622   -2.3824722542
19   
torsion grid (150,)
C        4.3861222439    1.8269516440    1.5039547281
C        5.2345352859    2.2006134518    0.4240873265
C        3.8413103917    0.5735680456    1.5442123343
C        5.4884956581    1.2726431935   -0.5463252196
C        4.0847470591   -0.4153085994    0.5129391224
C        5.4243418326   -2.3800899037   -1.5445725505
C        4.3054881414   -1.7457526130   -2.3514320790
C        5.3078092001   -0.8773346669   -1.6287020219
N        4.9668360921    0.0048481840   -0.5176013536
O        3.5772416817   -1.5439493385    0.4965048309
H        4.1699595975    2.5412232267    2.2950290328
H        5.6773703661    3.1873517287    0.3548942893
H        3.1842382352    0.2533400495    2.3458437878
H        6.1286016260    1.4967591087   -1.3930806722
H        5.1313865928   -2.8630773367   -0.6229119578
H        6.2680294280   -2.8210492571   -2.0686341259
H        4.3582594868   -1.7525726595   -3.4365660057
H        3.3140214703   -1.8253251966   -1.9242260202
H        6.0451115065   -0.3955309821   -2.2608933773
19   
torsion grid (165,)
C        4.4044142225    1.7544432004    1.5504883866
C        4.8768747174    0.4829209101    1.9828389528
C        4.1244375936    1.9654547988    0.2294139422
C        5.0085990592   -0.5059388012    1.0497330032
C        4.3072059776    0.9407668534   -0.7805695496
C        4.3833055447   -1.6490368733   -2.5520310362
C        5.8623730951   -1.3976294954   -2.3399444673
C        4.9260763074   -1.4707365918   -1.1540605390
N        4.6943405049   -0.3287217824   -0.2743050558
O        4.1547881292    1.1293192237   -1.9936383643
H        4.2738232090    2.5581534366    2.2714135155
H        5.1282749409    0.2839623335    3.0181092094
H        3.7791680694    2.9240440072   -0.1431760753
H        5.3592443731   -1.4971959392    1.3172359304
H        3.8116006580   -0.8446930532   -2.9901075750
H        4.0582287666   -2.6568621900   -2.7968421038
H        6.5734412136   -2.2086877647   -2.4687446817
H        6.2164993948   -0.4122753873   -2.6209293905
H        4.9795699056   -2.3797151351   -0.5652214022
19   
torsion grid (180,)
C        4.4252822359    1.7642330952    1.5515720568
C        4.9785043226    0.5110591939    1.9429410020
C        4.0230756991    1.9586762451    0.2608867621
C        5.0647070469   -0.4743064925    1.0024874427
C        4.1471410528    0.9358660427   -0.7627706212
C        4.4507603670   -1.5824396303   -2.6181227563
C        5.9078727941   -1.4814183884   -2.2217597224
C        4.8265228496   -1.4723602768   -1.1609750860
N        4.6322792049   -0.3143764603   -0.2915996995
O        3.8669904992    1.1213091370   -1.9523472803
H        4.3298671132    2.5661134843    2.2800315315
H        5.3251837496    0.3250425350    2.9528298928
H        3.6099181205    2.9018696247   -0.0806551161
H        5.4767530518   -1.4507187757    1.2352930616
H        4.0071104756   -0.7246405774   -3.0994817469
H        4.0681701331   -2.5533527621   -2.9214358621
H        6.5519259848   -2.3536525172   -2.2876041262
H        6.3916130558   -0.5303820892   -2.4215324382
H        4.7135157068   -2.3864730615   -0.5872910765
