24   
torsion grid (-165,)
C       -1.7227169880   -1.9144124972    0.9039089138
C       -1.0102909157   -0.5498582971    0.9173909657
C       -1.5874414419    0.3277459115    2.0414633928
C        0.4914125744   -0.7837267352    1.1631841815
C       -1.2351819802    0.1286531094   -0.4658903972
C       -0.3337152262    1.2954022944   -0.7665870340
C        0.5481607371    1.3426435977   -1.7729182268
C        1.4572545726    2.5022325102   -2.0763727939
H       -1.2850331618   -2.5781276208    0.1497819500
H       -1.6397023478   -2.4111255920    1.8775599349
H       -2.7898122310   -1.8043615437    0.6754266377
H       -1.1109843106    1.3139217329    2.0653766709
H       -2.6655917022    0.4779196453    1.9111837578
H       -1.4299411245   -0.1377489231    3.0212275491
H        1.0393993532    0.1598306231    1.2430443573
H        0.6458059696   -1.3469793655    2.0908481467
H        0.9403465968   -1.3549829783    0.3423990978
H       -1.0941984806   -0.6262811825   -1.2494108100
H       -2.2860403356    0.4452345316   -0.5239280562
H       -0.4126786560    2.1620963157   -0.1066524951
H        0.6301513180    0.4781854421   -2.4352539205
H        2.5113522686    2.1994692769   -2.0340481780
H        1.3109179728    3.3226186431   -1.3668285150
H        1.2808133280    2.8911231200   -3.0872279755
24   
torsion grid (-150,)
C       -1.6240970052   -1.8521544965    0.8902372011
C       -1.0562230656   -0.4257920195    1.0060814956
C       -1.7286611851    0.3229463755    2.1689556929
C        0.4560629273   -0.5402274318    1.2791134968
C       -1.3291541647    0.3241824213   -0.3393499935
C       -0.3241954718    1.3793300463   -0.7146633376
C        0.4534584020    1.3425085985   -1.8037751180
C        1.4655022530    2.3889261898   -2.1832027987
H       -1.0957036775   -2.4200533213    0.1165641776
H       -1.5216113304   -2.3954704274    1.8369409848
H       -2.6891370537   -1.8376731968    0.6278233473
H       -1.3707706997    1.3572761710    2.2324009229
H       -2.8172317075    0.3523985389    2.0429227116
H       -1.5140533094   -0.1615922079    3.1285281447
H        0.9158869703    0.4383151926    1.4474871934
H        0.6351941912   -1.1547037410    2.1691584995
H        0.9771094661   -1.0053949534    0.4353165420
H       -1.3549479866   -0.4140763681   -1.1499279965
H       -2.3346118848    0.7634047332   -0.2923749729
H       -0.2302939913    2.2336561416   -0.0399620969
H        0.3619533647    0.4903747263   -2.4807365612
H        2.4731109021    1.9587740765   -2.2486870980
H        1.4915009318    3.2043557047   -1.4536396016
H        1.2414681150    2.8198507970   -3.1672274270
24   
torsion grid (-135,)
C       -1.5171032244   -1.7933308704    0.8476367307
C       -1.0878552818   -0.3351546724    1.0946290183
C       -1.8735089343    0.2493924291    2.2812862227
C        0.4141611438   -0.3373149056    1.4402908216
C       -1.3894472230    0.5007315747   -0.2037032578
C       -0.3054629948    1.4382214110   -0.6628049571
C        0.3616008824    1.3280918119   -1.8185247635
C        1.4463442489    2.2595422137   -2.2865868571
H       -0.9277198105   -2.2406448549    0.0393721456
H       -1.3753012410   -2.4046993547    1.7466764901
H       -2.5751651469   -1.8543181279    0.5653633966
H       -1.6073307026    1.2998446603    2.4489736228
H       -2.9539121893    0.2028930832    2.1014290546
H       -1.6625212345   -0.2996524941    3.2064338436
H        0.7763965574    0.6632464558    1.6968625488
H        0.6006304743   -0.9897552143    2.3013036707
H        1.0167649906   -0.7006881517    0.6018831854
H       -1.5984866098   -0.1919332600   -1.0267022840
H       -2.3157515559    1.0672473531   -0.0438067601
H       -0.0547055928    2.2674906512    0.0023711604
H        0.1131895070    0.5004778808   -2.4865113242
H        2.3887008355    1.7202093800   -2.4468373531
H        1.6311675719    3.0565761716   -1.5596580140
H        1.1830297192    2.7265837101   -3.2440545412
24   
torsion grid (-120,)
C       -1.3439818504   -1.7508926109    0.7436457979
C       -1.0492792952   -0.2904844421    1.1348456416
C       -1.9576942433    0.1066466854    2.3133769702
C        0.4196797055   -0.1900628956    1.5858013587
C       -1.3666313696    0.6345698747   -0.1020614584
C       -0.2237676652    1.4488992081   -0.6458466386
C        0.3044842693    1.3064327060   -1.8682902504
C        1.4402846387    2.1226608900   -2.4227211887
H       -0.7120389174   -2.0657383488   -0.0950557182
H       -1.1532718720   -2.4315546685    1.5817878011
H       -2.3903640020   -1.8750964770    0.4412967067
H       -1.7749129439    1.1438075634    2.6184333515
H       -3.0164733401    0.0193140204    2.0427056665
H       -1.7802117891   -0.5348238957    3.1846389659
H        0.6705685384    0.8172721213    1.9347037138
H        0.6051051896   -0.8817267521    2.4156990998
H        1.1077542325   -0.4422647492    0.7731369338
H       -1.7692466574    0.0200910252   -0.9141322057
H       -2.1730692096    1.3230783741    0.1812471018
H        0.1926104619    2.2135212932    0.0124463738
H       -0.1096796926    0.5418249008   -2.5291036774
H        2.2882885731    1.4834770423   -2.7000063738
H        1.7949776556    2.8605539696   -1.6963462981
H        1.1379833683    2.6580240142   -3.3316989847
24   
torsion grid (-105,)
C       -0.6829326977   -0.0998046608    1.8616479214
C        0.3498042190   -0.8414526334    0.9922279645
C        1.2181607024   -1.7205925784    1.9133896953
C       -0.3811032774   -1.7461533641   -0.0136986765
C        1.2737370954    0.2202258479    0.2919814205
C        1.0238782893    0.4589006758   -1.1727385135
C        0.5767025742    1.6068701368   -1.6987176207
C        0.3363597855    1.8544536916   -3.1632469085
H       -1.2895555076    0.5823579377    1.2539307642
H       -1.3637296511   -0.8031321725    2.3555004857
H       -0.1872521123    0.4922679803    2.6391774702
H        1.9473006176   -2.2989520269    1.3339265553
H        1.7735007107   -1.1080910623    2.6334801210
H        0.6026098769   -2.4284195236    2.4809510736
H        0.3230707482   -2.3079644817   -0.6377558331
H       -1.0029418809   -2.4748195817    0.5188815896
H       -1.0309578533   -1.1674711564   -0.6773466448
H        1.2046990930    1.1698193255    0.8326882957
H        2.3147595960   -0.1136964132    0.3974471867
H        1.2327268248   -0.3738811943   -1.8458629067
H        0.3669129058    2.4413996912   -1.0261671100
H       -0.7093725509    2.1290380525   -3.3518174001
H        0.5677556830    0.9681595878   -3.7623557078
H        0.9520631525    2.6846502273   -3.5319745559
24   
torsion grid (-90,)
C       -0.7311262908    0.0540650168    1.6544728807
C        0.3525403922   -0.8036448814    0.9760675355
C        1.1439057626   -1.5437541656    2.0720328309
C       -0.3002096658   -1.8369147698    0.0443190399
C        1.3396649080    0.1381349586    0.2125980345
C        0.9803297637    0.4367324951   -1.2179198878
C        0.5822856000    1.6302582095   -1.6780230437
C        0.2243170478    1.9339489111   -3.1074942795
H       -1.2657817626    0.6657763933    0.9182722253
H       -1.4687958570   -0.5739718937    2.1676027913
H       -0.2882506008    0.7283768047    2.3960415936
H        1.8907465277   -2.2165551653    1.6345515653
H        1.6713718340   -0.8362191495    2.7227509493
H        0.4782670890   -2.1447994054    2.7025178755
H        0.4537878046   -2.4346750982   -0.4814924161
H       -0.9255725225   -2.5268297449    0.6223367949
H       -0.9352593328   -1.3572388469   -0.7068676116
H        1.4480585367    1.0719531793    0.7749732465
H        2.3293760436   -0.3398893874    0.2137051693
H        1.0544009957   -0.3933479881   -1.9218005240
H        0.5090544599    2.4619552123   -0.9739870812
H       -0.8076942516    2.2985067994   -3.1881366494
H        0.3215113488    1.0471319856   -3.7416257226
H        0.8697426033    2.7197468654   -3.5200658583
24   
torsion grid (-75,)
C       -0.7769195646   -0.0139192436    1.5276140103
C        0.3505801510   -0.9340385581    1.0284045746
C        1.0933733579   -1.5186637073    2.2443626641
C       -0.2405898119   -2.0848388237    0.1969333774
C        1.3691668951   -0.1009403768    0.1959673843
C        0.9107950273    0.2832946404   -1.1851011135
C        0.5916975043    1.5256871203   -1.5710124401
C        0.1281825745    1.9151284701   -2.9482424305
H       -1.2863162893    0.4755284264    0.6905910660
H       -1.5247666406   -0.5818404420    2.0931512436
H       -0.3816225947    0.7686947077    2.1855714460
H        1.8743289374   -2.2213778281    1.9310239368
H        1.5717128961   -0.7269519954    2.8330302133
H        0.4040192072   -2.0562174172    2.9057115920
H        0.5499009259   -2.7130857137   -0.2312531234
H       -0.8719608108   -2.7251528132    0.8234428013
H       -0.8589959239   -1.7115456849   -0.6253087839
H        1.6323046453    0.7992803218    0.7637696262
H        2.2907499330   -0.6929633082    0.1027003348
H        0.8345056400   -0.5232111598   -1.9159417393
H        0.6696161815    2.3340546751   -0.8407846761
H       -0.8675065033    2.3755725870   -2.9149501785
H        0.0791783513    1.0481397273   -3.6144792782
H        0.8024198474    2.6538919828   -3.3997308220
24   
torsion grid (-60,)
C       -0.8151170582   -0.0736931442    1.3539864612
C        0.3677759894   -0.9895021182    0.9968976456
C        1.0988475578   -1.4086906706    2.2846799264
C       -0.1546308517   -2.2486728848    0.2809236689
C        1.3794008934   -0.2299158231    0.0926110224
C        0.8309662844    0.2678803782   -1.2174661508
C        0.6802095169    1.5575106536   -1.5455269546
C        0.1301479351    2.0624929051   -2.8514924449
H       -1.3582672494    0.2420512667    0.4581816924
H       -1.5195105561   -0.5901734101    2.0162625781
H       -0.4711023642    0.8306202672    1.8700965287
H        1.9461346040   -2.0681925061    2.0627588246
H        1.4858409060   -0.5350768040    2.8221283560
H        0.4248793572   -1.9460241742    2.9617717397
H        0.6712216241   -2.9024774977   -0.0240287568
H       -0.8104415314   -2.8258469210    0.9427603349
H       -0.7323860878   -1.9942348902   -0.6134506734
H        1.7795572760    0.6204273824    0.6587485310
H        2.2266847276   -0.9023597335   -0.1034172854
H        0.5382226419   -0.4893901641   -1.9469460777
H        0.9734104374    2.3179632712   -0.8185700561
H       -0.7649989759    2.6771980051   -2.6921073970
H       -0.1386315382    1.2377550267   -3.5189310871
H        0.8599311854    2.6965947621   -3.3706629131
24   
torsion grid (-45,)
C       -1.0348898112   -0.0175167003    1.3472967435
C        0.2344410899   -0.8660521570    1.1618199795
C        0.9161451458   -1.0923510069    2.5215537065
C       -0.1592725837   -2.2298841091    0.5610032027
C        1.2447979320   -0.1496911578    0.2179154348
C        0.6523853568    0.4488004229   -1.0291452721
C        0.6602018202    1.7532387362   -1.3308553144
C        0.0657586267    2.3602474217   -2.5723673748
H       -1.5783293751    0.1020150896    0.4056703269
H       -1.7085166211   -0.4878183139    2.0730570372
H       -0.7909969899    0.9862511672    1.7149100765
H        1.8473075064   -1.6599533221    2.4071840042
H        1.1615497845   -0.1390323535    3.0037639471
H        0.2636031571   -1.6534584077    3.2004521443
H        0.7170385652   -2.8780946313    0.4436077695
H       -0.8760575559   -2.7495532749    1.2072817611
H       -0.6269722131   -2.1154141791   -0.4229968530
H        1.7390105456    0.6515070038    0.7819349401
H        2.0295601376   -0.8703874609   -0.0508929130
H        0.1833270620   -0.2422022703   -1.7329662184
H        1.1286869994    2.4476169038   -0.6301201072
H       -0.7117482593    3.0928207551   -2.3205912131
H       -0.3824325016    1.5972741133   -3.2164918974
H        0.8259111060    2.8946336795   -3.1561465425
24   
torsion grid (-30,)
C       -1.2037159750    0.0674083441    1.3163540657
C        0.1019252071   -0.7448911244    1.2602896221
C        0.7900783490   -0.7310909969    2.6345313033
C       -0.2501649590   -2.1987685153    0.8835384825
C        1.0931424894   -0.1696503732    0.1954760544
C        0.4600587936    0.5041563370   -0.9915689035
C        0.6038999991    1.7981546816   -1.3033839817
C       -0.0291844667    2.4815381769   -2.4846226436
H       -1.7602081856    0.0017169944    0.3771122697
H       -1.8491075769   -0.3076859891    2.1192436932
H       -1.0082400567    1.1285521388    1.5077008360
H        1.7466179835   -1.2661445755    2.6013855984
H        0.9908055992    0.2948711993    2.9641274832
H        0.1634369406   -1.2122627030    3.3945432513
H        0.6401516312   -2.8381680355    0.8985594660
H       -0.9803446902   -2.6229892953    1.5825686581
H       -0.6840464188   -2.2529268050   -0.1218326690
H        1.7431916823    0.5652288619    0.6863495047
H        1.7493280791   -0.9834673350   -0.1399431005
H       -0.1606098761   -0.1187207089   -1.6401487800
H        1.2245588380    2.4236699466   -0.6582181786
H       -0.6798737904    3.3047477988   -2.1629024946
H       -0.6311888195    1.7842993039   -3.0756549280
H        0.7306817899    2.9189061715   -3.1445462262
24   
torsion grid (-15,)
C       -1.2626571245   -0.1283764808    1.1640118871
C        0.0983772784   -0.8481472253    1.1557716704
C        0.7899420305   -0.6490168551    2.5151519129
C       -0.1546746646   -2.3527998947    0.9326735831
C        1.0475129793   -0.3145045556    0.0204090163
C        0.4009887758    0.5113958643   -1.0587382608
C        0.6646581867    1.8025746124   -1.2958041032
C        0.0250903674    2.6353876100   -2.3731694954
H       -1.8256226742   -0.3148948835    0.2444262888
H       -1.8700744495   -0.4830516459    2.0048883958
H       -1.1448279360    0.9555469159    1.2645032143
H        1.7737662907   -1.1327086640    2.5315639266
H        0.9358844846    0.4161868605    2.7288364168
H        0.1924150845   -1.0767744852    3.3288286792
H        0.7800007395   -2.9232889451    0.9847300255
H       -0.8377598516   -2.7569747268    1.6889877598
H       -0.6025564328   -2.5341062452   -0.0516964896
H        1.8339314906    0.2965112509    0.4780841269
H        1.5585270848   -1.1718399575   -0.4355176755
H       -0.3333387584    0.0090210086   -1.6922735111
H        1.3990171463    2.3084926832   -0.6652698806
H       -0.5016308222    3.4981902670   -1.9457175052
H       -0.6954170961    2.0524866170   -2.9553605728
H        0.7772258848    3.0354682132   -3.0648555591
24   
torsion grid (0,)
C       -1.4276550218   -0.2782547718    0.9643365738
C       -0.0347850761   -0.9308754628    1.0427411213
C        0.6112295471   -0.5350215922    2.3841824162
C       -0.1975850844   -2.4609403864    0.9926533988
C        0.9157962443   -0.4669317182   -0.1267476303
C        0.3414228992    0.5124972865   -1.1144766453
C        0.7821490238    1.7640623505   -1.2963279483
C        0.2199228093    2.7462524188   -2.2877242894
H       -1.9646298672   -0.5712704752    0.0558517061
H       -2.0361814035   -0.5896214643    1.8212219223
H       -1.3604538161    0.8138506538    0.9740810605
H        1.5981898339   -0.9981710952    2.4994984874
H        0.7401606722    0.5516748258    2.4493625945
H       -0.0091853629   -0.8510869864    3.2311456501
H        0.7726127859   -2.9642186194    1.0783148223
H       -0.8345659104   -2.8190041725    1.8100395165
H       -0.6559516558   -2.7767100397    0.0480038463
H        1.8244229415   -0.0316354080    0.3022077460
H        1.2418671285   -1.3578745203   -0.6787041824
H       -0.4919004661    0.1626764494   -1.7264949017
H        1.6155502374    2.1169814672   -0.6849990520
H       -0.1471760147    3.6499456688   -1.7845986672
H       -0.6100237271    2.3126023763   -2.8543323592
H        0.9863409025    3.0720357152   -3.0023622633
24   
torsion grid (15,)
C       -1.3743430473   -0.5925946590    0.9889183179
C        0.0749537973   -1.1089092217    1.0503190688
C        0.7276717333   -0.5206391491    2.3179788542
C        0.0772441498   -2.6432589589    1.1420916252
C        0.9249766274   -0.6572683683   -0.1926281994
C        0.3473460391    0.4501477244   -1.0315841730
C        0.8855724998    1.6689870813   -1.1701548749
C        0.3195229213    2.7757394009   -2.0178261408
H       -1.9079035964   -0.9752747065    0.1110095073
H       -1.9271755267   -0.9199531865    1.8768934919
H       -1.4073671788    0.5001614069    0.9522412643
H        1.7455225973   -0.9046071948    2.4534564686
H        0.7858969707    0.5721171029    2.2525078167
H        0.1506996558   -0.7729555796    3.2154727998
H        1.1010999948   -3.0337628568    1.1785200819
H       -0.4444283083   -2.9870433873    2.0429679330
H       -0.4207376638   -3.0905550949    0.2738125765
H        1.9291784372   -0.3761556240    0.1411144217
H        1.0575627897   -1.5294953299   -0.8474373187
H       -0.5766020154    0.2264399022   -1.5668088472
H        1.8102865593    1.8942673995   -0.6345141292
H        0.1004532917    3.6649732329   -1.4130249190
H       -0.6057273358    2.4666242739   -2.5141616452
H        1.0326198550    3.0879759513   -2.7913063439
24   
torsion grid (30,)
C       -1.4057745603   -0.7059134677    0.9789471210
C        0.0897579578   -1.0653633627    1.0343604773
C        0.7263725589   -0.2683523985    2.1906689551
C        0.2621466416   -2.5700947323    1.2927516109
C        0.8296486524   -0.6855964844   -0.2900202464
C        0.2731451036    0.4958178014   -1.0372638093
C        0.8900881199    1.6765760345   -1.1781663743
C        0.3404125871    2.8584386889   -1.9297014594
H       -1.9108374542   -1.1974729298    0.1383790225
H       -1.9066046381   -1.0291819307    1.8986800154
H       -1.5527421396    0.3731766713    0.8769095284
H        1.7771293098   -0.5475534351    2.3317080975
H        0.6875153496    0.8078614819    1.9874311478
H        0.2002984399   -0.4518058862    3.1348450508
H        1.3222994151   -2.8499611676    1.2944948535
H       -0.1605422434   -2.8555004684    2.2630936841
H       -0.2394451160   -3.1635587135    0.5193851413
H        1.8908898919   -0.5244001611   -0.0708772705
H        0.7833292011   -1.5542987221   -0.9623172450
H       -0.7076882211    0.3637909774   -1.4959395390
H        1.8727866120    1.8088636211   -0.7204457883
H        0.2441486413    3.7338940478   -1.2748934741
H       -0.6454314649    2.6407728682   -2.3524817389
H        1.0061681135    3.1508121502   -2.7516170659
24   
torsion grid (45,)
C       -1.6343446818   -0.8315588545    0.6870309021
C       -0.1180728417   -1.0923549541    0.7272975273
C        0.5147512167   -0.1770679843    1.7916752650
C        0.1465449421   -2.5623568038    1.0923648248
C        0.5389285867   -0.7992483605   -0.6541535293
C        0.1034750589    0.4783087946   -1.3197717964
C        0.8693832381    1.5671704195   -1.4683209030
C        0.4386974657    2.8479834033   -2.1296063612
H       -2.1181947979   -1.4028394793   -0.1148375067
H       -2.0989718533   -1.1296911714    1.6338426426
H       -1.8543997286    0.2283270810    0.5278017731
H        1.5863617359   -0.3818022445    1.9011192496
H        0.3995130420    0.8775600968    1.5203411032
H        0.0431968133   -0.3286777543    2.7695949898
H        1.2204168406   -2.7835547636    1.0849525986
H       -0.2353464314   -2.7944815740    2.0932554531
H       -0.3401496251   -3.2404714554    0.3816037644
H        1.6284346657   -0.8014354349   -0.5311410548
H        0.2989602456   -1.6367584183   -1.3248273926
H       -0.9171936488    0.5050233083   -1.7042053386
H        1.8920334356    1.5407922868   -1.0859187861
H        0.5133564832    3.6955253708   -1.4363432304
H       -0.5955394485    2.7883771638   -2.4827994764
H        1.0787641728    3.0857984381   -2.9886515310
24   
torsion grid (60,)
C       -1.6388299364   -1.0535419821    0.8319938138
C       -0.1025095367   -0.9985943191    0.7508005128
C        0.4299171800    0.0692080938    1.7210072880
C        0.4708022081   -2.3731848699    1.1400762959
C        0.3563429932   -0.6796089408   -0.7004596246
C       -0.1297897551    0.6301877615   -1.2599163053
C        0.6512594063    1.6805679799   -1.5431784261
C        0.1722526983    2.9941567955   -2.0982531397
H       -2.0473949826   -1.7783391942    0.1176757599
H       -1.9624016346   -1.3546237366    1.8349523757
H       -2.0897422962   -0.0787415599    0.6201150589
H        1.5249353906    0.1178330165    1.6897796935
H        0.0460107628    1.0624593715    1.4691867732
H        0.1338373488   -0.1601628651    2.7511600774
H        1.5657088133   -2.3752133460    1.0851298547
H        0.1872117978   -2.6413929213    2.1643221595
H        0.1002285221   -3.1604869869    0.4730699103
H        1.4529218467   -0.6969595793   -0.7287707881
H        0.0128563055   -1.4976486426   -1.3494801165
H       -1.2020264689    0.7177267792   -1.4439626055
H        1.7248291280    1.5955706316   -1.3616245806
H        0.4218887060    3.8229667385   -1.4234715938
H       -0.9117505965    2.9940507441   -2.2493772813
H        0.6502427835    3.2161418628   -3.0607688642
24   
torsion grid (75,)
C       -1.7090607618   -1.1784170723    0.8243729278
C       -0.1887948317   -0.9668945833    0.6998682943
C        0.2710269202    0.1577984517    1.6406924293
C        0.5201219659   -2.2777098525    1.0912038338
C        0.1853640336   -0.6442985142   -0.7763515738
C       -0.1581245960    0.7464052939   -1.2373475377
C        0.7321437806    1.6634480593   -1.6363359197
C        0.3972393901    3.0578539922   -2.0909559115
H       -2.0438284987   -2.0047016163    0.1868548434
H       -1.9871006073   -1.4175106525    1.8573208518
H       -2.2674361443   -0.2815464882    0.5335717751
H        1.3434129808    0.3533687459    1.5249086882
H       -0.2565411264    1.0944144443    1.4369735187
H        0.0884820147   -0.1161456564    2.6862439254
H        1.6097450474   -2.1616675404    1.0629151944
H        0.2423633654   -2.5875252941    2.1053378018
H        0.2517572961   -3.0919167588    0.4075707154
H        1.2653137434   -0.7925578032   -0.9014070739
H       -0.3083080153   -1.3836377377   -1.4221313388
H       -1.2162048741    1.0172254591   -1.2391200770
H        1.7911576785    1.3966129720   -1.6359850478
H        0.8878100119    3.8083657334   -1.4579857473
H       -0.6813922919    3.2410070506   -2.0608080459
H        0.7438887658    3.2349160185   -3.1169560434
24   
torsion grid (90,)
C       -1.8058606762   -1.3329725492    0.7602138903
C       -0.3215101847   -0.9531892831    0.6019984121
C        0.0299793847    0.2299067116    1.5170414282
C        0.5306225551   -2.1718236954    1.0094614362
C       -0.0185478652   -0.6371772088   -0.8990096188
C       -0.2043608782    0.7987303509   -1.3090372073
C        0.7709144474    1.6000679593   -1.7551757516
C        0.5958386886    3.0390653596   -2.1575226739
H       -2.0444327081   -2.2289224000    0.1763464368
H       -2.0515422532   -1.5382813752    1.8086444692
H       -2.4647620820   -0.5253151784    0.4188711676
H        1.0684712993    0.5468912183    1.3716924637
H       -0.6069997567    1.0981626072    1.3225671354
H       -0.0950323408   -0.0525745666    2.5688385775
H        1.6001368083   -1.9340054115    0.9769726613
H        0.2897959457   -2.4986149586    2.0278734589
H        0.3548957136   -3.0191150703    0.3359916165
H        1.0221840907   -0.9118977904   -1.1097280036
H       -0.6425358774   -1.2909654615   -1.5223146970
H       -1.2144579581    1.2076560813   -1.2283352213
H        1.7817051682    1.1946279091   -1.8371117144
H        1.2258734351    3.6993138829   -1.5478375957
H       -0.4435343549    3.3629548914   -2.0449913135
H        0.8904537044    3.1979307085   -3.2025838714
24   
torsion grid (105,)
C       -1.7859825812   -1.4722410650    0.7825544160
C       -0.3667813330   -0.9135837195    0.5671344960
C       -0.1352849075    0.2930741655    1.4918534063
C        0.6468887361   -2.0162228063    0.9329392122
C       -0.1709191828   -0.5536653687   -0.9510977697
C       -0.2020903361    0.9107310619   -1.2966087253
C        0.8308394552    1.6005072181   -1.7966195232
C        0.8096412172    3.0638962463   -2.1449840745
H       -1.9442753080   -2.3796830855    0.1889669583
H       -1.9574592503   -1.7239863238    1.8357136339
H       -2.5492234217   -0.7418441929    0.4871070116
H        0.8531137793    0.7351082448    1.3307106708
H       -0.8784157714    1.0803178378    1.3300168400
H       -0.2021720404   -0.0183145471    2.5408095919
H        1.6760654328   -1.6505022974    0.8400732166
H        0.5032672706   -2.3581929825    1.9647388457
H        0.5389033559   -2.8857150289    0.2737942442
H        0.7941368238   -0.9512921156   -1.2849660129
H       -0.9349535671   -1.0827026747   -1.5345425352
H       -1.1426063593    1.4390336122   -1.1246098894
H        1.7725889657    1.0753821124   -1.9704291890
H        1.5634654065    3.6180101047   -1.5711526353
H       -0.1684071978    3.5102659915   -1.9399735829
H        1.0405480320    3.2228302815   -3.2059361194
24   
torsion grid (120,)
C       -1.7304026473   -1.5914336341    0.8479155146
C       -0.4013318105   -0.8610639645    0.5811208562
C       -0.3167429718    0.3657744098    1.5086224413
C        0.7703814320   -1.8044058972    0.9117234181
C       -0.3170571209   -0.4704678403   -0.9442516220
C       -0.1919980679    0.9957898462   -1.2593883049
C        0.8669504943    1.5640447984   -1.8504560757
C        0.9965369438    3.0269108207   -2.1773382602
H       -1.8167463171   -2.4930760651    0.2302198799
H       -1.8122167829   -1.8952499624    1.8981961211
H       -2.5862971662   -0.9456881149    0.6185787945
H        0.6019293565    0.9355211582    1.3387272737
H       -1.1625544189    1.0458979984    1.3625271477
H       -0.3293168648    0.0448379775    2.5566543122
H        1.7321321186   -1.3087364100    0.7353229644
H        0.7418371743   -2.1184380787    1.9618289573
H        0.7384192539   -2.7070049057    0.2902611123
H        0.5300158718   -0.9933995312   -1.4006059065
H       -1.2131932715   -0.8548808420   -1.4480334217
H       -1.0362778885    1.6317324770   -0.9869289421
H        1.7133535423    0.9302871449   -2.1239251420
H        1.8675908688    3.4685235420   -1.6765404627
H        0.1079711600    3.5864114626   -1.8686087435
H        1.1392138671    3.1820862090   -3.2542775358
24   
torsion grid (135,)
C       -1.9550196906   -1.7147282606    0.9622059432
C       -0.7165967245   -0.8270962820    0.7431815794
C       -0.8275089919    0.3847821088    1.6895968586
C        0.5641410804   -1.6048785434    1.0911169729
C       -0.6555957946   -0.3918295869   -0.7667035816
C       -0.3497673792    1.0567716823   -1.0360405548
C        0.7562502953    1.5074678490   -1.6426811140
C        1.0620476233    2.9530153469   -1.9268103618
H       -1.9426118582   -2.5865865576    0.2968779933
H       -2.0010951599   -2.0831191406    1.9938008651
H       -2.8758821419   -1.1550390373    0.7629242019
H        0.0329608568    1.0536152695    1.5910216072
H       -1.7329322805    0.9701428156    1.4937575155
H       -0.8747461041    0.0447739275    2.7305307929
H        1.4530811162   -0.9921019534    0.9011544051
H        0.5767782663   -1.8965357750    2.1478773607
H        0.6487320132   -2.5170833877    0.4889964959
H        0.0715594327   -1.0196069772   -1.2925510624
H       -1.6299729499   -0.6127354961   -1.2229228277
H       -1.0975308224    1.7827884459   -0.7138311267
H        1.5058045565    0.7818459652   -1.9657908093
H        1.9986770001    3.2615290082   -1.4450997729
H        0.2633963282    3.6093868762   -1.5671919170
H        1.1878899247    3.1282906595   -3.0027850065
24   
torsion grid (150,)
C       -2.2622447477   -1.6619791234    1.3693351953
C       -1.1231667704   -0.6538357403    1.1356826135
C       -1.3320428935    0.5304420799    2.1000564268
C        0.2403800176   -1.3007936358    1.4270681481
C       -1.1634864871   -0.1874727539   -0.3567198446
C       -0.6681964989    1.2085182263   -0.6221204032
C        0.4571403911    1.5117269155   -1.2827549457
C        0.9553902516    2.9050713307   -1.5546898245
H       -2.2005123937   -2.5026547423    0.6673489552
H       -2.2240384469   -2.0731111850    2.3848813545
H       -3.2394494425   -1.1848971890    1.2349250927
H       -0.5165685011    1.2568255313    2.0301715673
H       -2.2719085938    1.0558744249    1.8931660618
H       -1.3747365326    0.1720263810    3.1349335651
H        1.0557225688   -0.6058927484    1.1958462546
H        0.3275222483   -1.5830726583    2.4827457940
H        0.3856439395   -2.2046918171    0.8238864759
H       -0.6056810509   -0.9046332268   -0.9693172482
H       -2.2072486148   -0.2395192520   -0.6967729611
H       -1.2840385245    2.0247597680   -0.2424354344
H        1.0732400741    0.6947533723   -1.6645048036
H        1.9508207492    3.0612744513   -1.1197044380
H        0.2809060616    3.6598989858   -1.1383969305
H        1.0494520299    3.0898357752   -2.6323138748
24   
torsion grid (165,)
C       -2.2192651095   -1.7508570442    1.2286980784
C       -1.2218123965   -0.5900417264    1.0675954118
C       -1.5724508393    0.5044110778    2.0932088938
C        0.2108630691   -1.0865730893    1.3207614919
C       -1.3374462612   -0.0439496588   -0.3863911827
C       -0.7043115031    1.3005159427   -0.6243853648
C        0.4077044862    1.5101598261   -1.3411945724
C        1.0467775136    2.8509698567   -1.5800596042
H       -2.0425017521   -2.5331967644    0.4807285144
H       -2.1310644709   -2.2112423425    2.2195656934
H       -3.2514854955   -1.4017813125    1.1107169988
H       -0.8380150480    1.3157451185    2.0842868413
H       -2.5593816535    0.9381093846    1.8911962677
H       -1.5937632005    0.0867048195    3.1062508991
H        0.9384125720   -0.2858303046    1.1513539568
H        0.3277413930   -1.4380419188    2.3524491933
H        0.4633727861   -1.9183768542    0.6524846573
H       -0.9089170998   -0.7830397054   -1.0738101877
H       -2.4061542734    0.0292079885   -0.6330051916
H       -1.1995667077    2.1603723902   -0.1709414695
H        0.9029088155    0.6504864108   -1.7977934833
H        2.0767167564    2.8713303401   -1.2014965562
H        0.4885221683    3.6540220969   -1.0887264086
H        1.1001168741    3.0797809633   -2.6519867447
24   
torsion grid (180,)
C       -1.8253242928   -1.9018688259    0.9899250425
C       -0.9770018239   -0.6209644856    0.8949065319
C       -1.4400486950    0.3746226158    1.9737115717
C        0.5029772510   -0.9749005896    1.1196757265
C       -1.1721801576   -0.0180644133   -0.5251329008
C       -0.4105413567    1.2503966247   -0.8005223833
C        0.5964666029    1.3658408466   -1.6758106228
C        1.3644735933    2.6291180510   -1.9540106673
H       -1.5221820134   -2.6337814851    0.2322179038
H       -1.7155352591   -2.3736367309    1.9731793158
H       -2.8895586433   -1.6850222295    0.8397144945
H       -0.8217742355    1.2780111094    1.9813669561
H       -2.4813173595    0.6781880692    1.8119970240
H       -1.3749346977   -0.0769708796    2.9702369923
H        1.1388033169   -0.0866203752    1.0564628236
H        0.6478044820   -1.4288258540    2.1068488010
H        0.8549789812   -1.6901599255    0.3667607835
H       -0.8859338972   -0.7755054346   -1.2653694585
H       -2.2461744852    0.1687781650   -0.6670100898
H       -0.7116848460    2.1359572349   -0.2380536720
H        0.8993336608    0.4819785040   -2.2413091832
H        2.4332975819    2.4965230708   -1.7428543469
H        0.9989894450    3.4625501794   -1.3459680751
H        1.2849124471    2.9174144791   -3.0098345644
