13   
torsion grid (-165,)
C       -0.0835989448    0.0096872080   -1.9578555441
C        0.0438550004   -0.4855676746   -0.5493365025
C       -0.1194077211    0.6595745139    0.4453139738
N       -0.0255226561    1.2671612245   -2.3628695142
N       -0.1815135725    1.2444463721   -3.7211398511
N       -0.3300955106    0.0343203860   -4.1520696929
N       -0.2751972009   -0.7618281196   -3.0532583557
Br       0.0704853197   -0.0248016839    2.2907500318
H        1.0233375751   -0.9563677860   -0.4131876359
H       -0.7090790472   -1.2565748968   -0.3566885917
H        0.6435791907    1.4240202350    0.3208106996
H       -1.1052880694    1.1164190633    0.3882383645
H       -0.3688637263   -1.7663517515   -3.1479711914
13   
torsion grid (-150,)
C       -0.0105199318    0.0091322122   -1.9737221873
C        0.1503281699   -0.4815502671   -0.5670947107
C       -0.1392493053    0.6376066374    0.4298505002
N        0.1996695104    1.2400530582   -2.4099282646
N       -0.0571970184    1.2240389281   -3.7521344536
N       -0.4128811841    0.0434589907   -4.1442756641
N       -0.3932789468   -0.7384001268   -3.0345963763
Br       0.0930343121   -0.0270767279    2.2769071528
H        1.1728519340   -0.8461018764   -0.4231381466
H       -0.5194120710   -1.3278958349   -0.3875393161
H        0.5455624583    1.4738922502    0.3133930691
H       -1.1659978879    0.9927238956    0.3615979803
H       -0.6400022491   -1.7191732271   -3.0983685698
13   
torsion grid (-135,)
C        0.0364266912    0.0118855318   -1.9439604989
C        0.2005216815   -0.4689295123   -0.5345695002
C       -0.2340361729    0.6141849577    0.4515517719
N        0.3846941578    1.1966817575   -2.4186362301
N        0.0484649277    1.1958892564   -3.7425591877
N       -0.4872540777    0.0690543663   -4.0882335114
N       -0.5062468511   -0.6911679650   -2.9644750088
Br      -0.0312439666   -0.0332347684    2.3080580107
H        1.2493394515   -0.7268902579   -0.3586116587
H       -0.3867348662   -1.3782203707   -0.3781795260
H        0.3791983191    1.5081391863    0.3653962238
H       -1.2847206208    0.8757989470    0.3363220531
H       -0.8890855813   -1.6290656354   -2.9904594038
13   
torsion grid (-120,)
C        0.1021341228    0.0064584914   -1.9664436987
C        0.2901142620   -0.4604779807   -0.5558318247
C       -0.2600971027    0.5795890451    0.4210544584
N        0.5728789457    1.1251805605   -2.4936062314
N        0.1396276035    1.1540959569   -3.7879123153
N       -0.5708422802    0.1074363990   -4.0666254014
N       -0.6102562668   -0.6267262142   -2.9267283539
Br      -0.0157710472   -0.0297377219    2.2855718211
H        1.3561854898   -0.6134542804   -0.3678481400
H       -0.2104227247   -1.4210231075   -0.4057976180
H        0.2655183434    1.5280241895    0.3335813332
H       -1.3304139935    0.7366978801    0.2938983818
H       -1.1112887485   -1.5073256081   -2.9051726112
13   
torsion grid (-105,)
C        0.1648890683    0.0079213119   -1.9773046111
C        0.3760296853   -0.4209950530   -0.5587673559
C       -0.2855466107    0.5734372171    0.3975471526
N        0.7463386210    1.0293670255   -2.5852136542
N        0.2277019693    1.0748371542   -3.8470217061
N       -0.6400464883    0.1305194635   -4.0299630781
N       -0.6974557968   -0.5504133675   -2.8582693807
Br      -0.0146308767    0.0110474315    2.2726240824
H        1.4494535183   -0.4630825486   -0.3609852831
H       -0.0300517621   -1.4237981605   -0.3996381963
H        0.1518578837    1.5658239792    0.3069010808
H       -1.3641015258    0.6299540629    0.2541881354
H       -1.3126052806   -1.3502599592   -2.7644720428
13   
torsion grid (-90,)
C       -0.0773595327   -0.0265381260   -1.8402879574
C       -0.1644141794   -0.7476682740   -0.5322376703
C       -1.1589490993   -0.0447793989    0.3954988769
N        0.7044663841    1.0029177590   -2.1221241892
N        0.4085791745    1.3738175581   -3.4021147860
N       -0.5167223902    0.6198713373   -3.9056874771
N       -0.8419456763   -0.2664993585   -2.9320513104
Br      -1.3134536892   -1.0154097649    2.1099359257
H        0.8273522230   -0.7537383547   -0.0762285911
H       -0.4671277750   -1.7870752730   -0.6881394203
H       -0.8321947871    0.9642234111    0.6412134934
H       -2.1653933587   -0.0151867086   -0.0209086859
H       -1.5377173243   -0.9819476621   -3.1083805338
13   
torsion grid (-75,)
C        0.1976827145   -0.0225444415   -1.9665240066
C        0.3653589433   -0.4631414778   -0.5466829540
C       -0.5550795675    0.3331214782    0.3814903020
N        1.0070161571    0.7767311257   -2.6420473448
N        0.4424642752    0.9478742590   -3.8733983854
N       -0.6706449064    0.2936763602   -3.9727476972
N       -0.8469563071   -0.3209940859   -2.7761514336
Br      -0.3211844204   -0.2488410695    2.2547519794
H        1.4080214087   -0.3004179773   -0.2694144476
H        0.1568691284   -1.5330642955   -0.4500068126
H       -0.3239659875    1.3970720072    0.3612495489
H       -1.6103844099    0.1827563346    0.1547140806
H       -1.6546000816   -0.9143475171   -2.6260170695
13   
torsion grid (-60,)
C        0.2213353536   -0.0219388140   -1.9747366676
C        0.3833811845   -0.4367252001   -0.5457945871
C       -0.6434828011    0.2497035014    0.3563417901
N        1.1173362703    0.6101364081   -2.7147420164
N        0.5402385334    0.8070714587   -3.9367819723
N       -0.6627050786    0.3302754467   -3.9683994005
N       -0.8860542743   -0.1946259329   -2.7367185502
Br      -0.4181813066   -0.3291461191    2.2311744623
H        1.3962378175   -0.1693311088   -0.2409992930
H        0.2868594094   -1.5235402170   -0.4547555272
H       -0.5250849936    1.3324688732    0.3551050447
H       -1.6707271857   -0.0050240561    0.0958933242
H       -1.7729816487   -0.6389652364   -2.5306870174
13   
torsion grid (-45,)
C        0.1140235070    0.1537800987   -1.9953713085
C        0.2225213773   -0.3752042959   -0.6013998458
C       -0.2581160220    0.5726899871    0.4924535031
N        1.0265992964    0.0249396774   -2.9431361177
N        0.5075075100    0.6128217020   -4.0611352830
N       -0.6734500113    1.0900321550   -3.8323956766
N       -0.9452433751    0.8014285458   -2.5337376552
Br       0.7151898269    2.2932122563    0.4733283878
H        1.2698761311   -0.6397816934   -0.4435102945
H       -0.3611336696   -1.3025111935   -0.5171614856
H       -1.3136670217    0.8298773561    0.3977527115
H       -0.0882803904    0.1424658454    1.4782799177
H       -1.8106528377    1.1237240319   -2.1181793001
13   
torsion grid (-30,)
C        0.1225337032    0.1270327255   -2.0194004360
C        0.2709257724   -0.3668647276   -0.6148973096
C       -0.3039653061    0.5351983109    0.4686981719
N        0.9167784619   -0.1852369639   -3.0293497060
N        0.3958537696    0.4269639285   -4.1332107908
N       -0.6727082689    1.0942481522   -3.8365446747
N       -0.8705491757    0.9056386890   -2.5066796338
Br       0.5102105101    2.3398710704    0.4605981198
H        1.3353611177   -0.5403830622   -0.4434327541
H       -0.2271928585   -1.3425754542   -0.5291869901
H       -1.3780734129    0.6933518106    0.3652152770
H       -0.1044110612    0.1256312155    1.4574673092
H       -1.6152805850    1.4039720706   -2.0348426314
13   
torsion grid (-15,)
C        0.1160244054    0.1203535301   -2.0463828909
C        0.3124668185   -0.3428161793   -0.6357225126
C       -0.3472244213    0.4979486645    0.4467439906
N        0.7599907634   -0.3556095729   -3.0991354058
N        0.2400260250    0.2807933558   -4.1888099375
N       -0.6859620678    1.1172550099   -3.8434911627
N       -0.7919936601    1.0173338427   -2.4939472279
Br       0.3033141800    2.3719292979    0.4685586702
H        1.3876911875   -0.4187385250   -0.4556075078
H       -0.0903360851   -1.3609756443   -0.5518507875
H       -1.4296178980    0.5633177348    0.3323730629
H       -0.1200933866    0.1013928831    1.4346811396
H       -1.3836932008    1.6642059445   -1.9859338351
13   
torsion grid (0,)
C       -0.3421001973    0.5643774545   -2.5586066822
C       -0.2560900089    0.5466193998   -1.0622953897
C       -1.3800882445    1.2425576434   -0.3112148487
N        0.4927633311   -0.0621926736   -3.3716787724
N        0.0303512394    0.1520919917   -4.6374989613
N       -1.0455767819    0.8728261035   -4.6260097779
N       -1.3067824421    1.1295640740   -3.3194995975
Br      -1.4677912444    3.1949539202   -0.6719225572
H        0.7098534187    0.9668281537   -0.7675205264
H       -0.2464645029   -0.5030736823   -0.7431250284
H       -2.3652749368    0.8542836070   -0.5698267257
H       -1.2337817897    1.1608387593    0.7641907053
H       -2.0424255979    1.7792769948   -3.0644824795
13   
torsion grid (15,)
C        0.0766043598    0.1152427260   -2.0733957524
C        0.3439742149   -0.2425995725   -0.6423404716
C       -0.5096217687    0.4623787324    0.4007285025
N        0.4415207152   -0.6135599730   -3.1162883040
N       -0.0295065932    0.0330575046   -4.2216841774
N       -0.6678142264    1.1116580189   -3.8943850244
N       -0.6228772755    1.1740713171   -2.5402755179
Br      -0.1482575471    2.4155028501    0.5162902271
H        1.4044794086   -0.0777795142   -0.4261041955
H        0.1725367850   -1.3206764448   -0.5430396747
H       -1.5775768992    0.3769220951    0.2014617489
H       -0.2944950291    0.0827830329    1.3977627846
H       -0.9797906987    1.9856119842   -2.0465559372
13   
torsion grid (30,)
C        0.0628021852    0.0975658153   -2.1397511244
C        0.4033391771   -0.2157728174   -0.7147490117
C       -0.4698613246    0.4450498139    0.3423749249
N        0.2242505432   -0.7329436006   -3.1580185521
N       -0.2227484208   -0.0731837954   -4.2660658203
N       -0.6543107405    1.1097774977   -3.9620094639
N       -0.4875850410    1.2342986317   -2.6223674401
Br      -0.1882005468    2.4123958444    0.4653226246
H        1.4550822546    0.0259155331   -0.5277213703
H        0.3075936891   -1.3012519687   -0.6017287242
H       -1.5348183222    0.3156754210    0.1524426668
H       -0.2254301904    0.0738397211    1.3358164059
H       -0.7130418278    2.0999821023   -2.1426450200
13   
torsion grid (45,)
C        0.0420190889    0.1290435512   -2.1520675705
C        0.3913605153   -0.1018160767   -0.7151788465
C       -0.5729910043    0.5034775715    0.2974354710
N        0.0672865069   -0.7912096153   -3.1035435631
N       -0.3217442158   -0.1655117194   -4.2528074811
N       -0.5835532650    1.0850032887   -4.0378429713
N       -0.3586745726    1.2902196981   -2.7173385990
Br      -0.4446602759    2.4893159219    0.3862556857
H        1.4078202843    0.2530608715   -0.5144029695
H        0.3993118633   -1.1873323392   -0.5702681600
H       -1.6156906814    0.2904362928    0.0655032538
H       -0.3412326959    0.1699638460    1.3072052070
H       -0.4968145107    2.2022339564   -2.2938749449
13   
torsion grid (60,)
C        0.0254202444    0.1332035668   -2.1319751034
C        0.4162928161   -0.0870360566   -0.7053671072
C       -0.5911833336    0.4220384899    0.3207982956
N       -0.1450315982   -0.8155871054   -3.0393720525
N       -0.4931417722   -0.1814625546   -4.1971528290
N       -0.5430204762    1.1023912899   -4.0287961101
N       -0.2146135806    1.3207446822   -2.7326709901
Br      -0.6333147192    2.4099572899    0.4207205847
H        1.4005450819    0.3489642819   -0.5068904576
H        0.5091500019   -1.1705549292   -0.5763273978
H       -1.6116763590    0.1206084030    0.0895174903
H       -0.3246042546    0.1013490672    1.3262822995
H       -0.2192351128    2.2559787762   -2.3398504060
13   
torsion grid (75,)
C        0.0017792684    0.1694473532   -2.0822380390
C        0.4127687022   -0.0578428316   -0.6635415543
C       -0.6490114859    0.3275298372    0.3632770649
N       -0.3419971559   -0.7679146312   -2.9512824463
N       -0.6381288930   -0.1219585404   -4.1170325682
N       -0.4868345884    1.1589774155   -3.9911750871
N       -0.0751755496    1.3610429186   -2.7165088756
Br      -0.8889173029    2.2976405541    0.4794025749
H        1.3507746052    0.4606102962   -0.4443620264
H        0.5978732978   -1.1324544187   -0.5620290878
H       -1.6301206402   -0.0739871022    0.1149545149
H       -0.3585928835    0.0201324676    1.3663847297
H        0.0506549752    2.2992738119   -2.3533967500
13   
torsion grid (90,)
C       -0.0468378771    0.2048238657   -2.0892890660
C        0.3652190923   -0.0238791640   -0.6713773829
C       -0.7612454425    0.2084108511    0.3329865327
N       -0.5425116035   -0.7039981893   -2.9132851307
N       -0.7828809639   -0.0618229004   -4.0938120234
N       -0.4516534639    1.1890670932   -4.0201695955
N        0.0231659442    1.3733397587   -2.7647683661
Br      -1.2610812535    2.1270724036    0.4374923378
H        1.2316057653    0.5920488188   -0.4155995198
H        0.6677573134   -1.0736720594   -0.5904327963
H       -1.6716271892   -0.3198008336    0.0552171284
H       -0.4562981528   -0.0655253470    1.3416551779
H        0.2840161879    2.2983847042   -2.4431548624
13   
torsion grid (105,)
C       -0.0918501616    0.2418604390   -2.0825806601
C        0.3335273042    0.0374799073   -0.6645924791
C       -0.8268440753    0.1525125447    0.3210084742
N       -0.7594706351   -0.6242394570   -2.8265532610
N       -0.9489569026   -0.0227843969   -4.0371074362
N       -0.4231507834    1.1616589205   -4.0578890613
N        0.1280315157    1.3433599964   -2.8332533642
Br      -1.5227119700    2.0075900685    0.3958492134
H        1.1300203729    0.7361974478   -0.3955706545
H        0.7399117532   -0.9770564348   -0.5812985944
H       -1.6701833979   -0.4692435578    0.0264022915
H       -0.5130250291   -0.0857771070    1.3360632830
H        0.5563376334    2.2288192533   -2.5898042559
13   
torsion grid (120,)
C       -0.1040254709    0.2827871209   -2.0642099081
C        0.3575664966    0.0924211174   -0.6547514975
C       -0.7972174488    0.1062830944    0.3422540397
N       -0.9342391032   -0.5061466302   -2.7251367925
N       -1.0759399754    0.0395537740   -3.9683497584
N       -0.3670866698    1.1175209637   -4.0883379762
N        0.2572133410    1.2835995801   -2.8961180611
Br      -1.6235026812    1.9043542940    0.4469343144
H        1.1002372793    0.8486624485   -0.3876280486
H        0.8456612676   -0.8875791567   -0.5844144798
H       -1.5946213267   -0.5709049348    0.0428123149
H       -0.4567376451   -0.1237973095    1.3505805242
H        0.8462555389    2.0922696620   -2.7360534591
13   
torsion grid (135,)
C       -0.1370848699    0.3457143559   -2.0467350002
C        0.3442869480    0.1711036196   -0.6409858044
C       -0.8037016847    0.0722464532    0.3570848501
N       -1.0847091403   -0.3595200602   -2.6401823867
N       -1.1709960566    0.1100972344   -3.9192602957
N       -0.3181075406    1.0626634166   -4.1254298485
N        0.3483405195    1.2210431765   -2.9541144917
Br      -1.7347609727    1.8105620309    0.5363700627
H        1.0234037858    0.9816797502   -0.3638117879
H        0.9147796114   -0.7654748914   -0.5857534516
H       -1.5598424034   -0.6388926174    0.0310689783
H       -0.4447235496   -0.1769649399    1.3541882692
H        1.0533708743    1.9428799561   -2.8627366948
13   
torsion grid (150,)
C       -0.1795591941   -0.0762462921   -2.0354897357
C        0.1881987635   -0.5915326541   -0.6773765750
C        0.6092853007    0.5556267738    0.2375789931
N       -0.6957850679    1.1085386992   -2.3172476228
N       -0.8775675260    1.1387217131   -3.6714133861
N       -0.4948531630    0.0301525069   -4.2179415293
N       -0.0462841937   -0.7498424833   -3.2014423260
Br       1.0843802566   -0.1455035872    2.0237176330
H        0.9988706064   -1.3215321244   -0.7615181858
H       -0.6694738002   -1.1140928956   -0.2410586032
H        1.4937211394    1.0715351837   -0.1318858255
H       -0.1946861268    1.2713493869    0.3902630177
H        0.3086154297   -1.6797610609   -3.3916005904
13   
torsion grid (165,)
C       -0.2041241347   -0.0068202687   -1.9517162630
C       -0.1047564446   -0.5481681057   -0.5579628160
C        0.0204307489    0.5841873146    0.4566365246
N       -0.4757221104    1.2400725478   -2.2985064467
N       -0.4757446427    1.2706789723   -3.6654794627
N       -0.2169137817    0.1028056116   -4.1566919924
N       -0.0398369790   -0.7195547399   -3.0904870414
Br       0.1327424629   -0.1634514790    2.2837299404
H        0.7577266416   -1.2176806893   -0.4792363762
H       -0.9939620327   -1.1471712127   -0.3337998199
H        0.9253395861    1.1703511113    0.3097456570
H       -0.8448892933    1.2422636748    0.4461736751
H        0.1800174933   -1.6982971385   -3.2338346337
13   
torsion grid (180,)
C       -0.1532014434   -0.0043572663   -1.9567143206
C       -0.0493291217   -0.5641338743   -0.5706703135
C       -0.0738370593    0.5504442980    0.4701204415
N       -0.2525581108    1.2714393471   -2.2895469950
N       -0.3198066599    1.3116115546   -3.6549348765
N       -0.2664011697    0.1217937917   -4.1579152067
N       -0.1599586660   -0.7258283950   -3.1019929574
Br       0.0628203465   -0.2280339169    2.2831210321
H        0.8767758346   -1.1406593378   -0.4739486100
H       -0.8761070498   -1.2590856945   -0.3897447944
H        0.7674680268    1.2315159269    0.3643578829
H       -1.0030829258    1.1151424233    0.4478274809
H       -0.1040354089   -1.7258022565   -3.2560600448
