35   
torsion grid (-90,)
C        2.4646164856   -2.2875974585    3.4478448941
C        2.5657044515   -2.7832909814    4.7504594253
C        1.4117769370   -1.4361358478    3.0774820775
C       -0.7367535548   -0.2297127263    3.7708632257
C       -3.6007846118   -2.7195937882    5.1975953245
C        1.6147548739   -2.4496890897    5.7377416593
C       -4.3776502225   -3.8035108084    5.5416907845
C       -1.8552074210   -0.2881158983    4.5918099649
C       -1.9645113869   -3.3331261329    6.9435244182
C        0.4334118735   -1.1101874831    4.0208521706
C       -2.3834854169   -2.4591281877    5.8904644038
C        0.5584702546   -1.6711315830    5.3304557834
C       -3.9672879854   -4.6669256275    6.5850570132
C       -2.7331558964   -4.4196652156    7.2954680842
C       -1.6024219333   -1.3644235778    5.5194847042
C       -5.8996181747   -6.0756215996    6.3685689070
C       -1.2590765715   -5.1257944650    9.0293997673
O       -0.4257950290   -1.0672567118    6.1493086901
O       -4.6415611002   -5.7265819417    6.9899736834
O       -2.4627328264   -5.3054789418    8.2689538534
H        3.2214016945   -2.5527904161    2.7161887869
H        3.3962172753   -3.4307109086    5.0157663836
H        1.3652608261   -1.0312859967    2.0698829630
H       -0.7368610096    0.3817191129    2.8712081340
H       -3.9081267776   -2.0742463624    4.3812759331
H        1.7099231830   -2.7887932496    6.7643282449
H       -5.3001367444   -3.9984769494    5.0085356215
H       -2.8129600320    0.1625993291    4.3610823773
H       -1.0496190343   -3.1003432686    7.4720931811
H       -6.2332709732   -6.9690104341    6.8921449200
H       -5.7501225381   -6.2956221883    5.3082899523
H       -6.6249176729   -5.2688899520    6.5024450474
H       -1.2436826529   -5.9440669437    9.7473101737
H       -1.2746914797   -4.1678271721    9.5601470947
H       -0.3789351169   -5.1870176119    8.3796979063
35   
torsion grid (-75,)
C        2.8385085384   -1.8066258203    3.4312519553
C        2.9149812601   -2.4394796896    4.6799001161
C        1.6952062673   -1.0951376250    3.0611647607
C       -0.6467056438   -0.3331829580    3.6851453336
C       -3.6813601555   -2.8816232464    5.1853254989
C        1.8500482236   -2.3810830476    5.5957573175
C       -4.5285786594   -3.8802646344    5.6162493346
C       -1.7872250513   -0.6243158755    4.4169507588
C       -2.0334976640   -3.5376539716    6.8971468670
C        0.6003405918   -1.0441732610    3.9398107869
C       -2.4206831564   -2.6865896089    5.8159321802
C        0.7069915119   -1.7315467662    5.1819137506
C       -4.1515988787   -4.7170463878    6.6912566987
C       -2.8754742654   -4.5347574806    7.3402957970
C       -1.5541437734   -1.6873502506    5.3494560711
C       -6.1943155717   -5.9739176291    6.6139829932
C       -1.3904180007   -5.2679409309    9.0545875760
O       -0.3824947068   -1.4568058324    6.0155233829
O       -4.8938297616   -5.6967346060    7.1783115941
O       -2.6349835593   -5.3874623721    8.3514778117
H        3.6832512285   -1.8611707031    2.7518559553
H        3.8155260151   -2.9823712265    4.9513873455
H        1.6508273444   -0.5840960685    2.1030666604
H       -0.6889513687    0.3673604661    2.8546815963
H       -3.9756242675   -2.2585187316    4.3475988467
H        1.9143540129   -2.8330108687    6.5802963657
H       -5.4833490446   -4.0255743575    5.1257785580
H       -2.7724629362   -0.2746464756    4.1326697548
H       -1.0767526593   -3.3642125370    7.3711903162
H       -6.5813138465   -6.8089606702    7.1942987890
H       -6.0992801496   -6.2600631096    5.5630353113
H       -6.8494004614   -5.1055834887    6.7240461697
H       -1.4126455338   -6.0428464692    9.8190480029
H       -1.3045372649   -4.2837315495    9.5276860151
H       -0.5455562616   -5.4399466600    8.3785102527
35   
torsion grid (-60,)
C        3.0397016822   -1.4641805995    3.4950595665
C        3.1133979275   -2.1699585811    4.7090904201
C        1.8431292475   -0.8832213876    3.0872355756
C       -0.6014073707   -0.4595869310    3.5870983058
C       -3.7299329666   -2.9694190533    5.1795234783
C        1.9928737614   -2.3103737219    5.5366156893
C       -4.6274920456   -3.8957921860    5.6737535828
C       -1.7306918698   -0.8886937573    4.2562130222
C       -2.0693903254   -3.6847396029    6.8451049924
C        0.6899550856   -1.0292516226    3.8840944750
C       -2.4378539250   -2.8426820003    5.7533405970
C        0.7979738653   -1.7784512773    5.0839604612
C       -4.2693583239   -4.7230394943    6.7586867449
C       -2.9610411991   -4.6079776993    7.3515576776
C       -1.5127533576   -1.9173802874    5.2213264300
C       -6.3920360271   -5.8370951570    6.7941666958
C       -1.4581657861   -5.3912925144    9.0288366170
O       -0.3349146481   -1.7630382713    5.8852876166
O       -5.0578723369   -5.6374216566    7.3053860293
O       -2.7349052080   -5.4459913084    8.3794394667
H        3.9280837330   -1.3647020467    2.8794488625
H        4.0566510089   -2.6126458568    5.0151053989
H        1.7899207170   -0.3197818626    2.1596789486
H       -0.6853386600    0.2667545913    2.7827183640
H       -4.0225333348   -2.3537154575    4.3363600171
H        2.0442912969   -2.8273592032    6.4893700099
H       -5.6080458813   -3.9863338406    5.2225948996
H       -2.7254127426   -0.6065285943    3.9344095756
H       -1.0834044539   -3.5742188204    7.2757800196
H       -6.8165420069   -6.6268151913    7.4108403951
H       -6.3565589444   -6.1572962761    5.7490747725
H       -6.9820745864   -4.9224451834    6.8999740651
H       -1.5009005342   -6.1397346149    9.8185232655
H       -1.2862547585   -4.4018052678    9.4665674813
H       -0.6543674789   -5.6408745009    8.3272122161
35   
torsion grid (-45,)
C        3.1300412493   -1.2017519314    3.5565215681
C        3.2162485298   -1.9472565956    4.7486358701
C        1.9015271383   -0.7391420015    3.1049672720
C       -0.5870787547   -0.5930479266    3.4797563807
C       -3.7560175559   -3.0256070631    5.1757634625
C        2.0789316551   -2.2426050499    5.5027618312
C       -4.6843876817   -3.8964910439    5.7183138653
C       -1.6966499633   -1.1036697555    4.1168314015
C       -2.0883672658   -3.7968949238    6.7965190525
C        0.7298404102   -1.0375418239    3.8338697580
C       -2.4429391222   -2.9557164592    5.7014865221
C        0.8534089565   -1.8142150417    5.0111852700
C       -4.3387723349   -4.7223042872    6.8052884555
C       -3.0084052318   -4.6646825459    7.3514211075
C       -1.4806363915   -2.0822963173    5.1252794380
C       -6.5132440832   -5.7214412814    6.9265839263
C       -1.4877710391   -5.4966661331    8.9900287077
O       -0.2888962548   -2.0036962027    5.7606227210
O       -5.1571265397   -5.5856872763    7.3955256468
O       -2.7874760799   -5.4958894914    8.3871506053
H        4.0327811055   -0.9825295453    2.9951851786
H        4.1848980902   -2.2985027742    5.0914513403
H        1.8312067050   -0.1498733368    2.1948653225
H       -0.7044664741    0.1191091487    2.6669699404
H       -4.0522341625   -2.4106485488    4.3338067158
H        2.1352819742   -2.7992911306    6.4326090811
H       -5.6824280249   -3.9404219177    5.2998395479
H       -2.6952047620   -0.8785494831    3.7658977601
H       -1.0841929544   -3.7381616087    7.1933535410
H       -6.9623116697   -6.4757141739    7.5698531409
H       -6.5266817711   -6.0616728799    5.8870876023
H       -7.0508724393   -4.7745790157    7.0305170347
H       -1.5403335764   -6.2283254735    9.7948049396
H       -1.2491738402   -4.5103062126    9.4032258794
H       -0.7228795656   -5.7995745083    8.2661201306
35   
torsion grid (-30,)
C        3.2067160585   -1.0002907857    3.6613366984
C        3.2936939003   -1.7973861798    4.8214269207
C        1.9698508644   -0.6191168735    3.1646526352
C       -0.5337374855   -0.6977004513    3.4037437628
C       -3.7484678693   -3.0525277419    5.1723524339
C        2.1479475820   -2.2205172513    5.4924615979
C       -4.7055948818   -3.8677337074    5.7540811752
C       -1.6262300923   -1.2748406389    4.0057721706
C       -2.0793927325   -3.8791201616    6.7597519204
C        0.7894391735   -1.0439991882    3.8152021005
C       -2.4214145586   -3.0399780398    5.6607109573
C        0.9127840948   -1.8583399066    4.9635084565
C       -4.3725857691   -4.6923725637    6.8436249314
C       -3.0272063319   -4.6916847920    7.3520398057
C       -1.4293023813   -2.2158268415    5.0496590409
C       -6.5872066422   -5.5839571526    7.0347181302
C       -1.5031141883   -5.5749891811    8.9606805872
O       -0.2224057151   -2.2200068758    5.6512551797
O       -5.2167395855   -5.5058642067    7.4711087686
O       -2.8176220727   -5.5173643811    8.3950089821
H        4.1155032143   -0.6808842209    3.1611922713
H        4.2689831214   -2.0863986525    5.2014290864
H        1.8946706316    0.0033646622    2.2774154804
H       -0.6708249643    0.0037164274    2.5848215338
H       -4.0416084588   -2.4347171265    4.3317393951
H        2.2011209486   -2.8236982600    6.3930480256
H       -5.7156684872   -3.8654853975    5.3630492101
H       -2.6245744213   -1.0847028325    3.6351502847
H       -1.0634604474   -3.8688246645    7.1299083420
H       -7.0569529607   -6.3072885032    7.6985741693
H       -6.6411162160   -5.9373524998    6.0007755157
H       -7.0783119764   -4.6116861732    7.1360509358
H       -1.5684182440   -6.2922281145    9.7774820749
H       -1.2037538140   -4.5964419642    9.3526237372
H       -0.7749718125   -5.9253788653    8.2204089511
35   
torsion grid (-15,)
C        3.2122845268   -0.8318088053    3.7530360181
C        3.3093577257   -1.6677041127    4.8856281393
C        1.9743204168   -0.5276869632    3.2105268859
C       -0.5212426590   -0.8087226239    3.3200523866
C       -3.7567671355   -3.0801088286    5.1696253244
C        2.1712203565   -2.2043941160    5.4812901589
C       -4.7285223153   -3.8489712320    5.7912241236
C       -1.6024031792   -1.4286747507    3.8970681381
C       -2.0771635153   -3.9491453406    6.7206912867
C        0.8008765134   -1.0634003011    3.7894577509
C       -2.4178944348   -3.1135588979    5.6194034689
C        0.9335579675   -1.9046264869    4.9160248562
C       -4.3966737623   -4.6720056970    6.8810213822
C       -3.0385435462   -4.7172604558    7.3501876642
C       -1.4102287603   -2.3285648659    4.9743264209
C       -6.6374849596   -5.4717773995    7.1479458446
C       -1.5027163370   -5.6391430330    8.9261160812
O       -0.1864586277   -2.4117242497    5.5256997847
O       -5.2536142622   -5.4440680191    7.5446024396
O       -2.8297837662   -5.5375138829    8.3979926949
H        4.1151366956   -0.4244468230    3.3092607381
H        4.2858285994   -1.8968174506    5.3016838046
H        1.8908532318    0.1192980279    2.3417816171
H       -0.6677079253   -0.1280638643    2.4854159811
H       -4.0530995683   -2.4603565667    4.3317687009
H        2.2300260472   -2.8438603721    6.3561524199
H       -5.7488419874   -3.8100498777    5.4298540758
H       -2.5986489555   -1.2693331847    3.5078513990
H       -1.0518462883   -3.9752003542    7.0630842089
H       -7.1172470205   -6.1673429224    7.8340166795
H       -6.7354711374   -5.8350854424    6.1206054143
H       -7.0864693860   -4.4792979627    7.2498390066
H       -1.5713652901   -6.3437170253    9.7536376514
H       -1.1546693310   -4.6684310891    9.2969399645
H       -0.8102147079   -6.0259520952    8.1699158353
35   
torsion grid (0,)
C        3.1875060314   -0.6641953210    3.8564598992
C        3.2960191262   -1.5434752645    4.9549754316
C        1.9557448997   -0.4307224520    3.2676752465
C       -0.5112687904   -0.9064628507    3.2384699773
C       -3.7520285917   -3.1284969991    5.1441227135
C        2.1774675687   -2.1922857106    5.4695190458
C       -4.7308864991   -3.8621915816    5.7970793584
C       -1.5790001425   -1.5726997163    3.7870049351
C       -2.0638230425   -4.0291510081    6.6649824522
C        0.8007402715   -1.0753037562    3.7680249149
C       -2.4046372492   -3.1960933605    5.5620263662
C        0.9438683875   -1.9487055569    4.8679590181
C       -4.3978603681   -4.6852715717    6.8860628217
C       -3.0310379506   -4.7650292985    7.3237105206
C       -1.3904914240   -2.4401216398    4.8903900463
C       -6.6544027974   -5.4136101717    7.2154755614
C       -1.4845071958   -5.7168860340    8.8712553166
O       -0.1503293870   -2.5944062561    5.3845338684
O       -5.2609239087   -5.4263848906    7.5770901050
O       -2.8204264473   -5.5815205191    8.3742098306
H        4.0757127341   -0.1708999340    3.4746257854
H        4.2672079805   -1.7183882615    5.4080096353
H        1.8622498383    0.2444045907    2.4216889529
H       -0.6629118705   -0.2422020387    2.3916382914
H       -4.0514718775   -2.5066141746    4.3090097205
H        2.2466828260   -2.8708567550    6.3136337084
H       -5.7580065271   -3.7957175839    5.4598282765
H       -2.5728572922   -1.4409303203    3.3818998461
H       -1.0324121917   -4.0810186881    6.9852323032
H       -7.1384718792   -6.0876310171    7.9198052062
H       -6.7899585569   -5.7824547312    6.1943722942
H       -7.0692612310   -4.4065286506    7.3191298992
H       -1.5529032550   -6.4137039130    9.7053513475
H       -1.1006750888   -4.7539022417    9.2266951188
H       -0.8213354887   -6.1279492933    8.1016904040
35   
torsion grid (15,)
C        3.1553614316   -0.5457991539    3.9863884517
C        3.2684836493   -1.4622880977    5.0532340404
C        1.9426116474   -0.3682896272    3.3405611891
C       -0.4817636684   -1.0070899826    3.1582271538
C       -3.7449939003   -3.1393469629    5.1212776729
C        2.1713521322   -2.2051140563    5.4806906170
C       -4.7326932159   -3.8280138724    5.8083243847
C       -1.5475439863   -1.7043808772    3.6721274208
C       -2.0509257397   -4.0810799563    6.6130396925
C        0.8088674227   -1.1035274545    3.7567025494
C       -2.3904824732   -3.2513733762    5.5069540101
C        0.9535303219   -2.0050216646    4.8341072132
C       -4.4008754769   -4.6509752157    6.8981884518
C       -3.0270603001   -4.7750069454    7.3030744668
C       -1.3692281259   -2.5346586458    4.8061765150
C       -6.6734468374   -5.2911748267    7.2952907251
C       -1.4776671940   -5.7649414950    8.8234676511
O       -0.1167260097   -2.7621625864    5.2397988476
O       -5.2718661875   -5.3524445359    7.6193580871
O       -2.8199302907   -5.5869962491    8.3576182888
H        4.0268526380    0.0191481292    3.6711742880
H        4.2253245145   -1.5928115407    5.5497327276
H        1.8486353787    0.3315928387    2.5149650407
H       -0.6214652191   -0.3603822433    2.2958939888
H       -4.0424489880   -2.5140121196    4.2879791015
H        2.2447330514   -2.9179068957    6.2957369563
H       -5.7653412090   -3.7271650946    5.4974808067
H       -2.5344203044   -1.5920871500    3.2445164832
H       -1.0141236421   -4.1648288963    6.9083611746
H       -7.1626404872   -5.9393424654    8.0200287769
H       -6.8504704578   -5.6651537069    6.2824787229
H       -7.0473436529   -4.2681877151    7.3988382326
H       -1.5500056711   -6.4509237879    9.6661568372
H       -1.0516595840   -4.8127885631    9.1595350694
H       -0.8485591902   -6.2064119224    8.0422787789
35   
torsion grid (30,)
C        3.0932409273   -0.4302170243    4.1263818806
C        3.2110332397   -1.3821107598    5.1601887929
C        1.9082359729   -0.3096149978    3.4171284377
C       -0.4518452271   -1.1092488550    3.0680103770
C       -3.7301116115   -3.1448161046    5.0970730015
C        2.1475341411   -2.2184904709    5.4941028463
C       -4.7222921744   -3.7838987125    5.8224740806
C       -1.5136578114   -1.8405318288    3.5442926532
C       -2.0292490060   -4.1310725445    6.5542087071
C        0.8073747408   -1.1341845160    3.7416243909
C       -2.3687862710   -3.3044469982    5.4449625668
C        0.9535716719   -2.0633309659    4.7962716829
C       -4.3897663063   -4.6060466523    6.9140444056
C       -3.0099166466   -4.7785417275    7.2811796010
C       -1.3467473338   -2.6306858889    4.7112243854
C       -6.6732339600   -5.1517180787    7.3873340259
C       -1.4564930146   -5.8091761642    8.7696281350
O       -0.0823304224   -2.9238678230    5.0770506292
O       -5.2651047738   -5.2628331537    7.6693660267
O       -2.8041989212   -5.5847606764    8.3400207176
H        3.9391200307    0.2052662790    3.8840854685
H        4.1459099802   -1.4680634637    5.7058401636
H        1.8128965808    0.4141487911    2.6125164994
H       -0.5747825867   -0.4789528484    2.1910701535
H       -4.0254922610   -2.5157800530    4.2656208405
H        2.2289380589   -2.9635025399    6.2789847774
H       -5.7593773077   -3.6459530724    5.5421456758
H       -2.4918136436   -1.7518245882    3.0909228982
H       -0.9876247969   -4.2498481951    6.8190665738
H       -7.1635875874   -5.7714785798    8.1356811496
H       -6.8952373258   -5.5315192047    6.3857215513
H       -7.0040557346   -4.1138410740    7.4883205855
H       -1.5306489244   -6.4819307996    9.6227174526
H       -0.9849709097   -4.8702444445    9.0811378995
H       -0.8679474547   -6.2835731301    7.9763122410
35   
torsion grid (45,)
C        2.9531113145   -0.3129779931    4.2815618859
C        3.0883385079   -1.3045859280    5.2729109209
C        1.8036923582   -0.2476861985    3.5058515484
C       -0.4637878466   -1.2125471465    2.9743781899
C       -3.7303765917   -3.1544680112    5.0706317255
C        2.0785248925   -2.2405952984    5.5043911361
C       -4.7156001888   -3.7397175590    5.8461862521
C       -1.5196790649   -1.9928562827    3.3914616761
C       -2.0115786835   -4.1825819239    6.4818852004
C        0.7556091284   -1.1670721018    3.7281966038
C       -2.3618766878   -3.3630575548    5.3691995617
C        0.9163326354   -2.1304185869    4.7532323933
C       -4.3718042008   -4.5562802503    6.9407002206
C       -2.9857926376   -4.7782365086    7.2587644269
C       -1.3501248127   -2.7381105402    4.5902901838
C       -6.6553883952   -5.0071887967    7.5092407281
C       -1.4179942718   -5.8472606670    8.7040186224
O       -0.0744095550   -3.0814286283    4.8814437763
O       -5.2412804009   -5.1627798562    7.7405013295
O       -2.7719384157   -5.5739445853    8.3234545657
H        3.7581822135    0.3969705346    4.1205416216
H        3.9952741678   -1.3457243867    5.8686914868
H        1.7008874133    0.5048206232    2.7289123502
H       -0.5642578076   -0.5854012047    2.0922430444
H       -4.0296053173   -2.5243483264    4.2410408342
H        2.1793773322   -3.0208925387    6.2518231854
H       -5.7572199845   -3.5646991922    5.6063285796
H       -2.4861135266   -1.9291163320    2.9088792859
H       -0.9647752318   -4.3380198184    6.7039984815
H       -7.1371657270   -5.5970898387    8.2866027547
H       -6.9271931945   -5.3959204020    6.5236423677
H       -6.9456029681   -3.9568275331    7.6041465812
H       -1.4856678454   -6.5030428166    9.5706918237
H       -0.8972243321   -4.9236231742    8.9806909313
H       -0.8815149446   -6.3575330644    7.8963197024
35   
torsion grid (60,)
C        2.7940393273   -0.2298254251    4.5019515575
C        2.9307618643   -1.2522161117    5.4576973539
C        1.7110119545   -0.2194251244    3.6287024615
C       -0.4258405382   -1.3416829280    2.8674946858
C       -3.6916555945   -3.1617072560    5.0226795176
C        1.9871311779   -2.2813585280    5.5602528658
C       -4.6696600079   -3.6839340311    5.8465935757
C       -1.4753904408   -2.1713593767    3.2098600538
C       -1.9580933405   -4.2440515668    6.3888532961
C        0.7290949636   -1.2258740406    3.7236814892
C       -2.3207401077   -3.4310397552    5.2733797666
C        0.8857131667   -2.2191873919    4.7244063908
C       -4.3147008044   -4.4953809440    6.9444269299
C       -2.9274004566   -4.7771374869    7.2135779161
C       -1.3239196820   -2.8660461637    4.4474412511
C       -6.5920809728   -4.8321948779    7.6139417890
C       -1.3577900134   -5.8957150218    8.6173486135
O       -0.0383270248   -3.2530941917    4.6697433639
O       -5.1759358261   -5.0444276796    7.7891483894
O       -2.7116532884   -5.5629425518    8.2840493742
H        3.5471233173    0.5494235204    4.4408658327
H        3.7851284569   -1.2482541514    6.1280599126
H        1.6151493596    0.5582457935    2.8759105138
H       -0.4895053140   -0.7172185018    1.9800062619
H       -3.9874961413   -2.5297178717    4.1928004364
H        2.0969305543   -3.0915931541    6.2737819335
H       -5.7117077069   -3.4654887736    5.6474793945
H       -2.4193122752   -2.1444644159    2.6798281317
H       -0.9101024310   -4.4450863967    6.5653879196
H       -7.0637876654   -5.3847807296    8.4240603083
H       -6.9210175218   -5.2293833806    6.6495931375
H       -6.8320391573   -3.7685225638    7.6977668248
H       -1.4228680363   -6.5318627759    9.4986422509
H       -0.7832330890   -4.9935343683    8.8552879764
H       -0.8795006368   -6.4455668794    7.7993326694
35   
torsion grid (75,)
C        2.5100660822   -0.1565572313    4.7774200252
C        2.6729847856   -1.2240287944    5.6715282867
C        1.5155447992   -0.1924005576    3.7976422491
C       -0.4208170642   -1.4679694131    2.7594194640
C       -3.6237663759   -3.1710967806    4.9491638805
C        1.8455884874   -2.3590931839    5.6137879039
C       -4.5826843515   -3.6084760914    5.8379417823
C       -1.4369548924   -2.3841020195    2.9813236038
C       -1.8795862764   -4.3108871989    6.2663110679
C        0.6507770697   -1.2975495274    3.7331337531
C       -2.2560349907   -3.5139194265    5.1409811842
C        0.8285146136   -2.3422808905    4.6837259985
C       -4.2138304627   -4.4043600083    6.9463047788
C       -2.8308305422   -4.7589991019    7.1572898706
C       -1.2853337890   -3.0381074777    4.2475077078
C       -6.4697586231   -4.5899192624    7.7430283041
C       -1.2594463817   -5.9258172039    8.5178056387
O        0.0125495487   -3.4417917418    4.3962338414
O       -5.0575112634   -4.8742294293    7.8492686039
O       -2.6079955904   -5.5229204931    8.2408906016
H        3.1734448722    0.7001656233    4.8414385084
H        3.4566164826   -1.1796699431    6.4221078980
H        1.4101035199    0.6256131799    3.0899562979
H       -0.4556870325   -0.8043582719    1.8988272603
H       -3.9184381977   -2.5459872345    4.1130778258
H        1.9888686096   -3.2079781409    6.2745119758
H       -5.6204217435   -3.3369247363    5.6875390989
H       -2.3489027284   -2.4025485708    2.3966979294
H       -0.8365251712   -4.5711271265    6.3865641178
H       -6.9231782106   -5.0911120107    8.5956982911
H       -6.8707482427   -4.9983667987    6.8115615709
H       -6.6460948369   -3.5126313721    7.8043180691
H       -1.3159427959   -6.5284531231    9.4227968476
H       -0.6227502571   -5.0519158653    8.6949237278
H       -0.8577018272   -6.5286926075    7.6962177802
35   
torsion grid (90,)
C        2.0444536061   -0.1765072227    5.1699644000
C        2.2732025789   -1.3136004089    5.9493405915
C        1.1687585736   -0.2151673381    4.0734772091
C       -0.4662806152   -1.5888686519    2.6620903021
C       -3.5067848000   -3.1920339892    4.8122132152
C        1.6323266582   -2.5379860275    5.6656661304
C       -4.4350534825   -3.5151947594    5.7769267979
C       -1.3900613088   -2.6254013189    2.6851128181
C       -1.7572491414   -4.3745210707    6.0939682740
C        0.4915896531   -1.4026135298    3.7822716672
C       -2.1532836409   -3.6158659559    4.9468259544
C        0.7292926483   -2.5295106300    4.6301830652
C       -4.0466044420   -4.2684188967    6.9101736277
C       -2.6767930252   -4.7028155319    7.0644820993
C       -1.2236129563   -3.2678895209    3.9666842578
C       -6.2592441761   -4.2687906226    7.8425989020
C       -1.1058131667   -5.8956726453    8.4013313798
O        0.0876639889   -3.6472561924    4.0445942935
O       -4.8598045031   -4.6300255238    7.8845525899
O       -2.4403198114   -5.4179679249    8.1771823010
H        2.5648378709    0.7461219971    5.4072947010
H        2.9645260321   -1.2616073985    6.7851984226
H        1.0270232521    0.6680863293    3.4561478274
H       -0.4949777366   -0.8338029884    1.8796080309
H       -3.8046643883   -2.5942993782    3.9570589688
H        1.8394198052   -3.4394225361    6.2335131565
H       -5.4617335420   -3.1866921463    5.6708229200
H       -2.2420352636   -2.7061671336    2.0208205518
H       -0.7298576720   -4.7069556769    6.1614310181
H       -6.6862368019   -4.6931697638    8.7487868928
H       -6.7370018037   -4.7057523755    6.9619132681
H       -6.3700067873   -3.1813032014    7.8489372279
H       -1.1454311192   -6.4374950060    9.3447604126
H       -0.4046029951   -5.0579288636    8.4849720185
H       -0.7959780576   -6.5728522394    7.5981723822
