
  -OEChem-12102412493D

  9  8  0     0  0  0  0  0  0999 V2000
    1.0618   -0.2925    0.0164 C   0  0  0  0  0  0  0  0  0  0  0  0
    1.9115    0.8895   -0.4441 C   0  0  0  0  0  0  0  0  0  0  0  0
    1.5361    1.3750   -1.7381 O   0  0  0  0  0  0  0  0  0  0  0  0
   -0.0001   -0.0274    0.0123 H   0  0  0  0  0  0  0  0  0  0  0  0
    1.2011   -1.1600   -0.6408 H   0  0  0  0  0  0  0  0  0  0  0  0
    1.3406   -0.5974    1.0317 H   0  0  0  0  0  0  0  0  0  0  0  0
    2.9788    0.6225   -0.4269 H   0  0  0  0  0  0  0  0  0  0  0  0
    1.7765    1.7407    0.2290 H   0  0  0  0  0  0  0  0  0  0  0  0
    1.6388    0.6480   -2.3720 H   0  0  0  0  0  0  0  0  0  0  0  0
  1  2  1  0  0  0  0
  1  4  1  0  0  0  0
  1  5  1  0  0  0  0
  1  6  1  0  0  0  0
  2  3  1  0  0  0  0
  2  7  1  0  0  0  0
  2  8  1  0  0  0  0
  3  9  1  0  0  0  0
M  END
$$$$
