
  -OEChem-12122420533D

  8  7  0     1  0  0  0  0  0999 V2000
    0.3712    0.1487    0.6233 C   0  0  0  0  0  0  0  0  0  0  0  0
   -0.3829   -0.0073   -0.7398 C   0  0  2  0  0  0  0  0  0  0  0  0
    0.5442   -1.0748    1.1612 F   0  0  0  0  0  0  0  0  0  0  0  0
    1.5817    0.6933    0.4157 F   0  0  0  0  0  0  0  0  0  0  0  0
   -1.6077   -0.5187   -0.4872 F   0  0  0  0  0  0  0  0  0  0  0  0
    0.5112   -1.1466   -1.7776 Cl  0  0  0  0  0  0  0  0  0  0  0  0
   -0.6326    1.2445    1.8982 Br  0  0  0  0  0  0  0  0  0  0  0  0
   -0.5848    1.7260   -1.6313 Br  0  0  0  0  0  0  0  0  0  0  0  0
  1  2  1  0  0  0  0
  1  3  1  0  0  0  0
  1  4  1  0  0  0  0
  1  7  1  0  0  0  0
  2  5  1  0  0  0  0
  2  6  1  0  0  0  0
  2  8  1  0  0  0  0
M  END
$$$$
