
  -OEChem-12122420533D

  8  7  0     1  0  0  0  0  0999 V2000
    0.1337   -0.1063    0.6211 C   0  0  0  0  0  0  0  0  0  0  0  0
   -0.6407   -0.2992   -0.7234 C   0  0  2  0  0  0  0  0  0  0  0  0
    0.2580   -1.2860    1.2514 F   0  0  0  0  0  0  0  0  0  0  0  0
    1.3639    0.3682    0.3533 F   0  0  0  0  0  0  0  0  0  0  0  0
   -0.7411    0.9048   -1.3277 F   0  0  0  0  0  0  0  0  0  0  0  0
   -2.2609   -0.9630   -0.4457 Cl  0  0  0  0  0  0  0  0  0  0  0  0
   -0.7734    1.1695    1.8031 Br  0  0  0  0  0  0  0  0  0  0  0  0
    0.4039   -1.4901   -1.8946 Br  0  0  0  0  0  0  0  0  0  0  0  0
  1  2  1  0  0  0  0
  1  3  1  0  0  0  0
  1  4  1  0  0  0  0
  1  7  1  0  0  0  0
  2  5  1  0  0  0  0
  2  6  1  0  0  0  0
  2  8  1  0  0  0  0
M  END
$$$$
