
  -OEChem-12102412493D

 23 23  0     1  0  0  0  0  0999 V2000
   -1.2689    0.0154   -0.8947 C   0  0  0  0  0  0  0  0  0  0  0  0
    1.1773   -0.3211   -0.8550 C   0  0  0  0  0  0  0  0  0  0  0  0
    0.0497    0.4505   -1.5685 C   0  0  2  0  0  0  0  0  0  0  0  0
    0.2591    1.9701   -1.5265 C   0  0  0  0  0  0  0  0  0  0  0  0
   -3.3826   -0.1209    1.2293 C   0  0  0  0  0  0  0  0  0  0  0  0
   -1.0272    0.2119    0.5532 N   0  0  1  0  0  0  0  0  0  0  0  0
   -1.9464   -0.5376    1.3959 N   0  3  0  0  0  0  0  0  0  0  0  0
    0.3373   -1.9054    1.2049 O   0  0  0  0  0  0  0  0  0  0  0  0
    1.3074    0.3771    1.8063 O   0  0  0  0  0  0  0  0  0  0  0  0
    0.6325   -0.5029    0.8710 S   0  0  0  0  0  0  0  0  0  0  0  0
   -2.0919    0.6547   -1.2185 H   0  0  0  0  0  0  0  0  0  0  0  0
   -1.5022   -1.0339   -1.1311 H   0  0  0  0  0  0  0  0  0  0  0  0
    1.3080   -1.3404   -1.2240 H   0  0  0  0  0  0  0  0  0  0  0  0
    2.1315    0.2066   -0.8325 H   0  0  0  0  0  0  0  0  0  0  0  0
    0.0152    0.1136   -2.6078 H   0  0  0  0  0  0  0  0  0  0  0  0
    0.3194    2.3475   -0.5021 H   0  0  0  0  0  0  0  0  0  0  0  0
   -0.5639    2.4828   -2.0319 H   0  0  0  0  0  0  0  0  0  0  0  0
    1.1845    2.2385   -2.0426 H   0  0  0  0  0  0  0  0  0  0  0  0
   -3.7251   -0.4155    0.2397 H   0  0  0  0  0  0  0  0  0  0  0  0
   -3.9627   -0.6359    1.9962 H   0  0  0  0  0  0  0  0  0  0  0  0
   -3.4336    0.9592    1.3597 H   0  0  0  0  0  0  0  0  0  0  0  0
   -1.6619   -0.3406    2.3654 H   0  0  0  0  0  0  0  0  0  0  0  0
   -1.8189   -1.5605    1.2640 H   0  0  0  0  0  0  0  0  0  0  0  0
  1  3  1  0  0  0  0
  1  6  1  0  0  0  0
  1 11  1  0  0  0  0
  1 12  1  0  0  0  0
  2  3  1  0  0  0  0
  2 10  1  0  0  0  0
  2 13  1  0  0  0  0
  2 14  1  0  0  0  0
  3  4  1  0  0  0  0
  3 15  1  0  0  0  0
  4 16  1  0  0  0  0
  4 17  1  0  0  0  0
  4 18  1  0  0  0  0
  5  7  1  0  0  0  0
  5 19  1  0  0  0  0
  5 20  1  0  0  0  0
  5 21  1  0  0  0  0
  6  7  1  0  0  0  0
  6 10  1  0  0  0  0
  7 22  1  0  0  0  0
  7 23  1  0  0  0  0
  8 10  2  0  0  0  0
  9 10  2  0  0  0  0
M  CHG  1   7   1
M  END
$$$$
