
  -OEChem-12122420533D

 18 18  0     1  0  0  0  0  0999 V2000
   -1.7015    1.6449   -0.9473 C   0  0  0  0  0  0  0  0  0  0  0  0
   -0.1139    1.0420    2.3076 C   0  0  0  0  0  0  0  0  0  0  0  0
    0.4055    1.3485    4.3939 C   0  0  0  0  0  0  0  0  0  0  0  0
    0.2476   -0.3159    0.2138 C   0  0  0  0  0  0  0  0  0  0  0  0
   -0.1285    1.0530    0.8037 C   0  0  1  0  0  0  0  0  0  0  0  0
   -1.8774    1.7712   -2.0961 N   0  0  0  0  0  0  0  0  0  0  0  0
    0.7289    1.6814    3.0499 N   0  0  0  0  0  0  0  0  0  0  0  0
   -1.0757    0.3099    3.0087 N   0  0  0  0  0  0  0  0  0  0  0  0
   -0.6176    0.3546    4.3485 N   0  0  0  0  0  0  0  0  0  0  0  0
   -1.4604    1.5369    0.3688 N   0  0  0  0  0  0  0  0  0  0  0  0
    0.8749    1.8045    5.4131 O   0  0  0  0  0  0  0  0  0  0  0  0
   -0.4794   -1.0887    0.4873 H   0  0  0  0  0  0  0  0  0  0  0  0
    0.2718   -0.2525   -0.8771 H   0  0  0  0  0  0  0  0  0  0  0  0
    1.2372   -0.6211    0.5658 H   0  0  0  0  0  0  0  0  0  0  0  0
    0.6084    1.7973    0.4972 H   0  0  0  0  0  0  0  0  0  0  0  0
   -1.2221   -0.6455    2.6839 H   0  0  0  0  0  0  0  0  0  0  0  0
   -1.3599    0.4665    5.0341 H   0  0  0  0  0  0  0  0  0  0  0  0
   -2.2506    1.2379    0.9312 H   0  0  0  0  0  0  0  0  0  0  0  0
  1  6  3  0  0  0  0
  1 10  1  0  0  0  0
  2  5  1  0  0  0  0
  2  7  2  0  0  0  0
  2  8  1  0  0  0  0
  3  7  1  0  0  0  0
  3  9  1  0  0  0  0
  3 11  2  0  0  0  0
  4  5  1  0  0  0  0
  4 12  1  0  0  0  0
  4 13  1  0  0  0  0
  4 14  1  0  0  0  0
  5 10  1  0  0  0  0
  5 15  1  0  0  0  0
  8  9  1  0  0  0  0
  8 16  1  0  0  0  0
  9 17  1  0  0  0  0
 10 18  1  0  0  0  0
M  END
$$$$
