
  -OEChem-12102412493D

 17 17  0     1  0  0  0  0  0999 V2000
    1.1662   -3.9450    1.3905 C   0  0  0  0  0  0  0  0  0  0  0  0
   -0.3052   -0.7289    0.5727 C   0  0  0  0  0  0  0  0  0  0  0  0
   -1.0842    1.2801    0.4876 C   0  0  0  0  0  0  0  0  0  0  0  0
   -0.6154   -2.7219   -0.9467 C   0  0  0  0  0  0  0  0  0  0  0  0
    0.2435   -2.0647    0.1345 C   0  0  2  0  0  0  0  0  0  0  0  0
    1.8688   -4.8858    1.4050 N   0  0  0  0  0  0  0  0  0  0  0  0
   -0.6405    0.2393   -0.3073 N   0  5  0  0  0  0  0  0  0  0  0  0
   -0.4498   -0.4638    1.8666 N   0  0  0  0  0  0  0  0  0  0  0  0
   -0.8753    0.8601    1.8196 N   0  0  0  0  0  0  0  0  0  0  0  0
    0.3231   -2.9171    1.3488 N   0  0  0  0  0  0  0  0  0  0  0  0
   -1.5611    2.3885    0.1741 O   0  0  0  0  0  0  0  0  0  0  0  0
   -1.6233   -2.9064   -0.5624 H   0  0  0  0  0  0  0  0  0  0  0  0
   -0.6873   -2.0472   -1.8034 H   0  0  0  0  0  0  0  0  0  0  0  0
   -0.1764   -3.6742   -1.2658 H   0  0  0  0  0  0  0  0  0  0  0  0
    1.2559   -1.9118   -0.2639 H   0  0  0  0  0  0  0  0  0  0  0  0
   -1.3812    1.2386    2.6084 H   0  0  0  0  0  0  0  0  0  0  0  0
    0.2145   -2.3574    2.1994 H   0  0  0  0  0  0  0  0  0  0  0  0
  1  6  3  0  0  0  0
  1 10  1  0  0  0  0
  2  5  1  0  0  0  0
  2  7  1  0  0  0  0
  2  8  2  0  0  0  0
  3  7  1  0  0  0  0
  3  9  1  0  0  0  0
  3 11  2  0  0  0  0
  4  5  1  0  0  0  0
  4 12  1  0  0  0  0
  4 13  1  0  0  0  0
  4 14  1  0  0  0  0
  5 10  1  0  0  0  0
  5 15  1  0  0  0  0
  8  9  1  0  0  0  0
  9 16  1  0  0  0  0
 10 17  1  0  0  0  0
M  CHG  1   7  -1
M  END
$$$$
