
  -OEChem-12122420533D

 19 19  0     0  0  0  0  0  0999 V2000
    1.5860    0.9944    1.7189 C   0  0  0  0  0  0  0  0  0  0  0  0
    0.3622    0.8641    1.1789 C   0  0  0  0  0  0  0  0  0  0  0  0
   -4.0896    1.0759    0.8638 C   0  0  0  0  0  0  0  0  0  0  0  0
   -2.7446    0.9435    0.7940 C   0  0  0  0  0  0  0  0  0  0  0  0
   -1.9520    1.3545    1.9179 C   0  0  0  0  0  0  0  0  0  0  0  0
    1.5221    1.5790    3.1001 C   0  0  0  0  0  0  0  0  0  0  0  0
    0.0117    1.7964    3.3286 C   0  0  0  0  0  0  0  0  0  0  0  0
   -0.6489    1.3173    2.0686 N   0  3  0  0  0  0  0  0  0  0  0  0
   -0.0658    0.3992   -0.0098 O   0  0  0  0  0  0  0  0  0  0  0  0
    2.5077    0.7131    1.2220 H   0  0  0  0  0  0  0  0  0  0  0  0
   -4.7235    0.7764    0.0345 H   0  0  0  0  0  0  0  0  0  0  0  0
   -4.5875    1.4825    1.7414 H   0  0  0  0  0  0  0  0  0  0  0  0
   -2.2665    0.5372   -0.0868 H   0  0  0  0  0  0  0  0  0  0  0  0
   -2.4828    1.7575    2.7784 H   0  0  0  0  0  0  0  0  0  0  0  0
    1.9485    0.8991    3.8440 H   0  0  0  0  0  0  0  0  0  0  0  0
    2.0786    2.5190    3.1643 H   0  0  0  0  0  0  0  0  0  0  0  0
   -0.3803    1.2115    4.1617 H   0  0  0  0  0  0  0  0  0  0  0  0
   -0.2490    2.8461    3.4709 H   0  0  0  0  0  0  0  0  0  0  0  0
    0.6912    0.1082   -0.5484 H   0  0  0  0  0  0  0  0  0  0  0  0
  1  2  2  0  0  0  0
  1  6  1  0  0  0  0
  1 10  1  0  0  0  0
  2  8  1  0  0  0  0
  2  9  1  0  0  0  0
  3  4  2  0  0  0  0
  3 11  1  0  0  0  0
  3 12  1  0  0  0  0
  4  5  1  0  0  0  0
  4 13  1  0  0  0  0
  5  8  2  0  0  0  0
  5 14  1  0  0  0  0
  6  7  1  0  0  0  0
  6 15  1  0  0  0  0
  6 16  1  0  0  0  0
  7  8  1  0  0  0  0
  7 17  1  0  0  0  0
  7 18  1  0  0  0  0
  9 19  1  0  0  0  0
M  CHG  1   8   1
M  END
$$$$
