26   
torsion grid (-165,)
C        6.1135486012    0.3229477814    1.2658020270
C        5.7257922558    1.1029386689    0.2037576973
C        4.0436389606   -0.1706959511    0.8873472938
C        1.8392822230   -1.4133212713   -1.1772436858
C        2.6540700648   -2.0687882192    1.8825883930
C        2.1039740979   -0.7946611076    2.4642774616
C        2.6996034469   -0.7951447753    1.0602101201
C        0.6859985176   -1.2312159141   -2.1522416860
C        3.6110897487    1.3781724849   -1.1134409075
N        5.0638825316   -0.4634816329    1.6824507939
N        4.3925116120    0.7927336518   -0.0312615680
N        1.7463603335   -0.6880091249   -0.0140516395
O        2.7893383134   -2.1498676427   -1.4205915027
H        7.0819523593    0.2784970565    1.7471456988
H        6.2523091054    1.8246882171   -0.4046753090
H        3.6083555049   -2.4247384784    2.2513383122
H        1.9545828059   -2.8235439070    1.5402428473
H        1.0251087388   -0.6864889212    2.5491654934
H        2.6891152162   -0.2912647415    3.2264288736
H       -0.0549183586   -0.4936176097   -1.8300467703
H        0.1886674017   -2.1960528269   -2.2858336411
H        1.0881006925   -0.9344162594   -3.1243172954
H        3.4166582152    0.6435466778   -1.8982981224
H        4.1842909900    2.2028740978   -1.5404707261
H        2.6636673746    1.7746326237   -0.7435415063
H        0.9478004499   -0.0825048767    0.1178259810
26   
torsion grid (-150,)
C        6.1764286387    0.0941381583    1.0351273850
C        5.7278126865    1.0283205281    0.1320258536
C        4.0551148543   -0.2511265059    0.8278829602
C        1.9163826436   -1.5266814484   -1.1891696711
C        2.5745185746   -1.9720371268    1.9915040216
C        2.0590463691   -0.6246722748    2.4277735359
C        2.6858335812   -0.7963575744    1.0475455657
C        0.8259118556   -1.3650888867   -2.2382120016
C        3.4813961505    1.5927310158   -0.8458179309
N        5.1312682919   -0.6945200189    1.4605851869
N        4.3629628105    0.8119483247    0.0093143533
N        1.7647327018   -0.7555065391   -0.0608220418
O        2.8630985007   -2.2894321791   -1.3442335113
H        7.1857309673   -0.0592688748    1.3946427489
H        6.2316036654    1.7992250914   -0.4342114104
H        3.5059542326   -2.3277170385    2.4148205987
H        1.8510387024   -2.7301686513    1.7126583088
H        0.9830675627   -0.4729482029    2.4744941464
H        2.6401816463   -0.0655336009    3.1536816400
H        0.0820874968   -0.6014046168   -1.9919129135
H        0.3177728047   -2.3254530451   -2.3625408875
H        1.2918270714   -1.1164357854   -3.1952211691
H        3.1677274508    1.0202291218   -1.7226719744
H        4.0198514204    2.4814116181   -1.1799957996
H        2.5959023856    1.9178341313   -0.2942817326
H        0.9787590912   -0.1225830204   -0.0069131460
26   
torsion grid (-135,)
C        6.2088076318   -0.1242529739    0.8672789391
C        5.7372111139    0.9487779522    0.1462514384
C        4.0612657216   -0.3293857750    0.8390542617
C        1.9136850087   -1.7170831174   -1.1005252981
C        2.5079884292   -1.9066434912    2.1045856349
C        2.0222344652   -0.5153510405    2.4261244241
C        2.6736780174   -0.8128157922    1.0792196716
C        0.8930964298   -1.5565967434   -2.2184355464
C        3.4286302228    1.7421033055   -0.4912051536
N        5.1611994988   -0.9113225140    1.2908123272
N        4.3578379389    0.8190559955    0.1393803728
N        1.7818190567   -0.8305940017   -0.0553171368
O        2.7869445059   -2.5749625000   -1.1337851327
H        7.2361538347   -0.3763019427    1.0965610793
H        6.2335666298    1.7672899092   -0.3564588777
H        3.4195942083   -2.2597974095    2.5711077046
H        1.7683932466   -2.6635937317    1.8694411436
H        0.9501564500   -0.3335562395    2.4342915826
H        2.5988343783    0.0825258290    3.1247536874
H        0.1658381272   -0.7572978251   -2.0463156657
H        0.3587237107   -2.5023428234   -2.3408259625
H        1.4253627693   -1.3589239145   -3.1529231716
H        3.0407393903    1.3383029296   -1.4312641657
H        3.9455423792    2.6815486533   -0.6956092512
H        2.5912949127    1.9534483664    0.1793940673
H        1.0560250610   -0.1290983896   -0.1056417023
26   
torsion grid (-120,)
C        6.2534704083   -0.1785920916    0.6786375551
C        5.7786808541    1.0052723053    0.1588083957
C        4.1040692168   -0.3000189199    0.8067490427
C        1.9027536929   -1.8808349194   -1.0276376829
C        2.5005769640   -1.7884395282    2.1200543447
C        2.0209511048   -0.3766672306    2.3482697043
C        2.7075046110   -0.7594466902    1.0402774458
C        0.9705813715   -1.7353699703   -2.2226685944
C        3.4559150009    1.9380006316   -0.1892609610
N        5.2068576833   -0.9818410717    1.0732720359
N        4.4002604484    0.9267802646    0.2526893883
N        1.8535901709   -0.8431503468   -0.1210517077
O        2.6355638442   -2.8511910152   -0.8894920047
H        7.2828000734   -0.4956608455    0.7864259362
H        6.2736831293    1.8730725382   -0.2548876048
H        3.3949154732   -2.1266492252    2.6293367063
H        1.7613843695   -2.5524267531    1.9102404780
H        0.9512618976   -0.1869789125    2.3111704392
H        2.5801500267    0.2561443764    3.0306789534
H        0.3020113254   -0.8710308675   -2.1636638441
H        0.3717519160   -2.6450402418   -2.3111224879
H        1.5768003804   -1.6522048789   -3.1293682686
H        3.0733551656    1.7160906109   -1.1914640441
H        3.9500005903    2.9114198404   -0.2084368096
H        2.6177551285    1.9945236236    0.5101259888
H        1.2403906953   -0.0643769993   -0.3199952367
26   
torsion grid (-105,)
C        6.0837730525   -0.2365919756    0.5332142205
C        5.6540064490    1.0366832932    0.2288597092
C        3.9440045390   -0.2599546311    0.8015675642
C        1.6975445781   -1.9439684196   -0.9718471579
C        2.2606084491   -1.6557769358    2.1277679990
C        1.8088735045   -0.2247410707    2.2758527432
C        2.5319743667   -0.6825709461    1.0121926259
C        0.9090471749   -1.7921716282   -2.2656823307
C        3.3766541954    2.1216262315    0.1374111496
N        5.0156287277   -1.0331131719    0.8797222561
N        4.2831505882    1.0197002689    0.4100790227
N        1.7252809969   -0.8139990451   -0.1786411543
O        2.2547444501   -2.9905248059   -0.6701994915
H        7.0961542112   -0.6197586606    0.5238074456
H        6.1780122455    1.9307946767   -0.0800244371
H        3.1271090220   -1.9930839980    2.6840234069
H        1.5125763340   -2.4130423217    1.9281102544
H        0.7468279790   -0.0128113419    2.1875600416
H        2.3566596306    0.4239140467    2.9532057002
H        0.2654170847   -0.9073590656   -2.2905744375
H        0.2989795345   -2.6860106240   -2.4108565054
H        1.6157828172   -1.7342615540   -3.0995163030
H        3.0565147017    2.1240968922   -0.9110888691
H        3.8742520596    3.0698153753    0.3532178056
H        2.4975668889    2.0416349314    0.7797773784
H        1.2806277437    0.0205823184   -0.5384558146
26   
torsion grid (-90,)
C        6.0365748792   -0.2635536075    0.2358722265
C        5.6533271844    1.0579315137    0.1633416219
C        3.9287571337   -0.2377189371    0.6977020860
C        1.6235103949   -2.0764814169   -0.9107132467
C        2.2453440205   -1.5622567287    2.1113659630
C        1.7904927588   -0.1278241530    2.1780600399
C        2.5186430983   -0.6511367322    0.9424936954
C        0.9272565612   -1.9936201308   -2.2626211378
C        3.4551977769    2.2531707060    0.4153296971
N        4.9599829947   -1.0567006577    0.5590734031
N        4.3028845777    1.0721889771    0.4581209557
N        1.7223521784   -0.8694219767   -0.2436504184
O        2.0429931868   -3.1355453807   -0.4647440255
H        7.0223583976   -0.6828482980    0.0794186887
H        6.1988437217    1.9658893689   -0.0550034910
H        3.1104607964   -1.8636036572    2.6904614557
H        1.5044090804   -2.3353827916    1.9537947686
H        0.7292111191    0.0775855616    2.0714412206
H        2.3328878433    0.5547085614    2.8260413504
H        0.3786716740   -1.0601996489   -2.4221195731
H        0.2396964450   -2.8367368387   -2.3550192775
H        1.6831940839   -2.0937546313   -3.0479463294
H        3.3476251225    2.6177557510   -0.6119487986
H        3.8832617490    3.0510929044    1.0291962959
H        2.4694432107    2.0076675747    0.8088792848
H        1.4200864054   -0.0451454812   -0.7477388111
26   
torsion grid (-75,)
C        5.9509134983   -0.2686022184   -0.0587563807
C        5.6469644836    1.0667320573    0.0931023464
C        3.8818382316   -0.2020471837    0.5543084367
C        1.5657982347   -2.1841852214   -0.8913496650
C        2.1751506547   -1.4157192879    2.0608241185
C        1.7227970230    0.0183902447    2.0067704229
C        2.4700397243   -0.5964191168    0.8268199673
C        0.9783267611   -2.2055858323   -2.2960123276
C        3.5733658686    2.3312661240    0.7375990825
N        4.8496062061   -1.0426405338    0.2184375606
N        4.3175049044    1.1083505650    0.4715134755
N        1.6964288123   -0.9160408852   -0.3515434926
O        1.8759191988   -3.2123826913   -0.3055073611
H        6.8951084142   -0.7097615325   -0.3519964849
H        6.2333572971    1.9675862477   -0.0249344250
H        3.0296107089   -1.6686125710    2.6782914993
H        1.4389368671   -2.2011546018    1.9526855987
H        0.6650451804    0.2160133364    1.8608241164
H        2.2467811534    0.7457964640    2.6187340421
H        0.4265802045   -1.2965711452   -2.5550549462
H        0.3180121742   -3.0696184606   -2.3883094541
H        1.7975700892   -2.3309372234   -3.0117337671
H        3.9537405455    3.1295380799    0.0965436645
H        3.6728548186    2.6411918218    1.7833657937
H        2.5160438825    2.1833446653    0.5173840057
H        1.5102956156   -0.1447907532   -0.9808657735
26   
torsion grid (-60,)
C        4.3045633597    1.9544918506   -1.0303357350
C        5.1288194924    1.5712360131    0.0039264401
C        3.4993861636    0.0891056222   -0.2937999162
C        0.1968059761   -0.3796541569   -0.5821373800
C        2.6317125462   -2.2515228874   -0.9981363292
C        3.0433366034   -2.4016425203    0.4397434248
C        2.5587731737   -1.0504254174   -0.0780911259
C       -0.9505047994    0.4191173619    0.0197418323
C        5.1374008336   -0.3285949401    1.6391711257
N        3.2955037417    1.0380157099   -1.1974271817
N        4.6030626094    0.3849103602    0.4863767942
N        1.2282913070   -0.6389187942    0.3075115055
O        0.1802688209   -0.7613134143   -1.7440661792
H        4.3825814982    2.8338754843   -1.6570278271
H        6.0169163947    2.0139390486    0.4332709452
H        3.4075693008   -2.2227423699   -1.7553028293
H        1.6881189211   -2.6673850307   -1.3246768209
H        2.3694486548   -2.9228318050    1.1127045176
H        4.0971045487   -2.5327190477    0.6566375106
H       -1.0293344067    0.3150750194    1.1064813545
H       -1.8850146458    0.1020450120   -0.4455018441
H       -0.7950337593    1.4773560392   -0.2164172230
H        5.8118298108   -1.1364376131    1.3370471157
H        4.3269957368   -0.7481826646    2.2359150243
H        5.6945685576    0.3758707754    2.2596049803
H        1.1706238182   -0.1486426777    1.1921501150
26   
torsion grid (-45,)
C        4.1441439726    2.0696422021   -0.8323428551
C        5.1551470866    1.5660244233   -0.0480467359
C        3.4577723550    0.1351269473   -0.1487288983
C        0.2584486330   -0.4066938713   -0.7211998492
C        2.7384887916   -2.2712241267   -0.8671013396
C        2.9957382686   -2.3822272265    0.6105447037
C        2.5564728752   -1.0487263368    0.0107245142
C       -0.9099241563    0.4507654528   -0.2609339840
C        5.4753029236   -0.5031569953    1.3195435231
N        3.0997188622    1.1797146058   -0.8852426943
N        4.7115385461    0.3303445465    0.3991984093
N        1.1896418586   -0.6643074363    0.2768473268
O        0.3424248791   -0.8384757547   -1.8626067061
H        4.1110897941    3.0163266862   -1.3563873575
H        6.1212973598    1.9565254869    0.2396114853
H        3.5948019944   -2.2510749271   -1.5332976722
H        1.8408616151   -2.7037040818   -1.2880123517
H        2.2475094316   -2.8811732199    1.2180369946
H        4.0145042915   -2.5208118136    0.9459109664
H       -1.1757528790    0.2790897297    0.7871507921
H       -1.7734900994    0.2487955452   -0.8954994144
H       -0.6313836363    1.5040331533   -0.3773833216
H        5.8917343729   -1.3816584286    0.8175401601
H        4.8541003962   -0.8254986284    2.1569093909
H        6.3018228605    0.0895679045    1.7143847789
H        1.0737721918   -0.1088581378    1.1166133252
26   
torsion grid (-30,)
C        3.9684544344    2.1924060166   -0.5071644562
C        5.0996921843    1.5928229344   -0.0097830653
C        3.3771946778    0.1904490855    0.0690053963
C        0.3210146609   -0.4138825596   -0.8054866871
C        2.8307564310   -2.2863571252   -0.6144344324
C        2.9185445952   -2.3104288604    0.8892971666
C        2.5132892144   -1.0284553189    0.1635739325
C       -0.8948922813    0.4402909727   -0.4912049866
C        5.6511852277   -0.6547069427    0.9376886535
N        2.9122399721    1.3138120157   -0.4652132991
N        4.7229071573    0.3082623781    0.3576618518
N        1.1192277273   -0.6847093274    0.3006484735
O        0.5549394315   -0.8404569390   -1.9282380124
H        3.8567427671    3.1968540059   -0.8946785982
H        6.1130359768    1.9435570733    0.1274277636
H        3.7544219734   -2.2729101844   -1.1849163512
H        2.0000132193   -2.7737804331   -1.1077857626
H        2.1126002316   -2.7975146328    1.4282148537
H        3.8867310645   -2.3889819892    1.3641213175
H       -1.3111767118    0.2301746585    0.4993331258
H       -1.6577023641    0.2754293195   -1.2527926691
H       -0.5899828887    1.4922178291   -0.5203620971
H        5.6811146645   -1.5787166348    0.3554586595
H        5.3893050901   -0.8850363389    1.9736489508
H        6.6500944288   -0.2166719585    0.9260058145
H        0.9270638076   -0.0997131548    1.1061358513
26   
torsion grid (-15,)
C        3.8692821365    2.2840866929   -0.2308005880
C        5.0439351454    1.6309208618    0.0475761404
C        3.3276506906    0.2231278264    0.1560957861
C        0.3646317479   -0.3827252658   -0.8721510932
C        2.8174524209   -2.2963204416   -0.4369305760
C        2.8563878717   -2.2251307160    1.0681029706
C        2.4657263096   -0.9962596141    0.2500466204
C       -0.8833161990    0.4545383438   -0.6577197275
C        5.6751527099   -0.7044718852    0.6769408270
N        2.8137726819    1.4027447900   -0.1699795831
N        4.6995531189    0.3071824777    0.2889918845
N        1.0657512818   -0.6614948868    0.2965640653
O        0.7060872466   -0.7917023525   -1.9740338037
H        3.7236575074    3.3275689064   -0.4784191213
H        6.0715733196    1.9631405544    0.0972299016
H        3.7501538924   -2.3225262010   -0.9906067444
H        1.9983625892   -2.8164980012   -0.9166722626
H        2.0441851426   -2.6938212417    1.6140612035
H        3.8106886548   -2.2396269377    1.5794871233
H       -1.3831573191    0.2262150359    0.2890278530
H       -1.5730191182    0.2930806297   -1.4867849795
H       -0.5876939463    1.5093681762   -0.6448375688
H        5.5021591194   -1.6436596001    0.1508580693
H        5.6560500974   -0.8852229644    1.7561292602
H        6.6694397289   -0.3468329084    0.4044437453
H        0.8220635189   -0.0607243567    1.0765642920
26   
torsion grid (0,)
C        4.0761574452    2.2315443375    0.0216024024
C        5.2824609597    1.5794235940    0.0649211481
C        3.6103105176    0.1319577233    0.2737836269
C        0.7375784002   -0.5878762128   -0.8439847326
C        3.1853828956   -2.4551944731   -0.1317391407
C        3.1694794573   -2.2323335767    1.3590264423
C        2.7785330650   -1.1039560921    0.4057436402
C       -0.5599688434    0.1917648356   -0.7358054353
C        6.0042990688   -0.8089303629    0.1538359523
N        3.0454846865    1.3260892012    0.1460057121
N        4.9862321583    0.2322044745    0.2334222202
N        1.3691332702   -0.8117039642    0.3742120241
O        1.1785627517   -0.9980021277   -1.9103564601
H        3.8893683015    3.2918372594   -0.0889101936
H        6.3042248317    1.9262210375   -0.0036218043
H        4.1342680514   -2.5308316933   -0.6486480899
H        2.3887123162   -3.0393473466   -0.5753328138
H        2.3563886088   -2.6700363668    1.9288249978
H        4.1058503635   -2.1469836809    1.8999550628
H       -1.1103796149   -0.0390454041    0.1816011382
H       -1.1836464918   -0.0221738493   -1.6044060578
H       -0.3175021542    1.2601812358   -0.7305444190
H        6.0970449209   -1.1929489454   -0.8670238959
H        5.7808915543   -1.6347995765    0.8274844375
H        6.9629441359   -0.3816724375    0.4541093489
H        1.0745221452   -0.1807277410    1.1120373690
26   
torsion grid (15,)
C        4.1159276853    2.2573665629    0.2948754453
C        5.3058599329    1.5945732159    0.1252800353
C        3.6354402826    0.1467643975    0.3321100495
C        0.8373561649   -0.5976358946   -0.8866926697
C        3.2133523167   -2.4674378845    0.0237381880
C        3.1751242506   -2.1581845039    1.4986221827
C        2.8030418236   -1.0866366151    0.4773038827
C       -0.4850965086    0.1470042717   -0.8652067535
C        5.9839508243   -0.8077294180   -0.0815585437
N        3.0862114094    1.3518758877    0.4249521725
N        4.9984718965    0.2400436346    0.1552768317
N        1.3952845981   -0.8024723496    0.3685913688
O        1.3592879918   -0.9947001410   -1.9217453395
H        3.9414063194    3.3248874133    0.3304373529
H        6.3205358758    1.9386164056   -0.0188167414
H        4.1666210157   -2.5955572447   -0.4709754256
H        2.4136286389   -3.0664989010   -0.3940657707
H        2.3621774486   -2.5669128446    2.0901729453
H        4.1111323351   -2.0300266402    2.0339920556
H       -1.0896856365   -0.1035700293    0.0118547833
H       -1.0414629583   -0.0800341570   -1.7751960827
H       -0.2760239601    1.2223301515   -0.8404874113
H        5.8836601605   -1.2241606321   -1.0879529159
H        5.8939234465   -1.6095368442    0.6532187492
H        6.9797954032   -0.3727808009    0.0164277545
H        1.0577038085   -0.1627728676    1.0804814203
26   
torsion grid (30,)
C        4.1162693440    2.2112533359    0.5707952431
C        5.2441458370    1.5549586441    0.1412783495
C        3.5790046701    0.1194532716    0.4372853648
C        0.8806294331   -0.6111180919   -0.9624036873
C        3.1346901039   -2.5151673897    0.2252685557
C        2.9952952054   -2.1078341893    1.6692779376
C        2.7238793221   -1.1007774981    0.5548618381
C       -0.4548675526    0.1030428132   -1.0664766412
C        5.7825699955   -0.8175606441   -0.4716452873
N        3.0884888391    1.3135102300    0.7501856947
N        4.8968477882    0.2134154236    0.0550515651
N        1.3289545679   -0.8052556215    0.3346019413
O        1.5065456621   -0.9930991285   -1.9457458851
H        3.9861019688    3.2696131083    0.7562889767
H        6.2353569535    1.8984535318   -0.1194213297
H        4.1201609002   -2.7117483649   -0.1718407652
H        2.3510664149   -3.1218458268   -0.2124762965
H        2.1375651965   -2.4632375176    2.2316254651
H        3.9000846203   -1.9565785653    2.2506101864
H       -1.1141468355   -0.1174054115   -0.2216540013
H       -0.9422055897   -0.1803383827   -2.0001686831
H       -0.2714198745    1.1831960001   -1.0849393998
H        5.3548064519   -1.2716351667   -1.3682262970
H        5.9812614465   -1.5919739191    0.2743009122
H        6.7321061381   -0.3514088639   -0.7378797918
H        0.9362343030   -0.1680608094    1.0201772351
26   
torsion grid (45,)
C        4.2711414516    2.1407711154    0.8893612364
C        5.2518155673    1.5348518309    0.1370892923
C        3.6836607198    0.0721952178    0.6910873367
C        1.1747142216   -0.5650724220   -0.9969892573
C        3.2680720666   -2.5485461163    0.4996124203
C        2.9039215411   -2.0970686335    1.8892021216
C        2.8018323760   -1.1299169272    0.7142371346
C       -0.1667203502    0.0899995875   -1.2681989922
C        5.4782357128   -0.7355409726   -0.9253337121
N        3.2912303708    1.2299032972    1.2103817818
N        4.8629795660    0.2128023765   -0.0020152980
N        1.4393124922   -0.8351344811    0.3314128282
O        1.9703803333   -0.8401471191   -1.8928690433
H        4.2159803176    3.1727925543    1.2113936696
H        6.1626416915    1.9068174493   -0.3107739009
H        4.3125686581   -2.7320094458    0.2828811246
H        2.5758215360   -3.1891669170   -0.0347565568
H        1.9710621274   -2.4456703184    2.3212953810
H        3.7072458104   -1.9205131942    2.5969343887
H       -0.9194879239   -0.1647771447   -0.5166015171
H       -0.5171716276   -0.2074471661   -2.2575688156
H       -0.0317300365    1.1773213193   -1.2659936638
H        4.7028306279   -1.2115312073   -1.5277545057
H        6.0610375145   -1.4945940750   -0.3943822081
H        6.1490409178   -0.1865002323   -1.5878882441
H        0.9207485851   -0.2893810650    1.0115604726
26   
torsion grid (60,)
C        4.5365198537    2.0095164822    1.1391719179
C        5.3396740921    1.4365048474    0.1764565949
C        3.7763114084    0.0130335072    0.8315160044
C        1.2556589658   -0.6571911745   -0.9514220911
C        3.2939771887   -2.5727744981    0.6940719574
C        2.8681111074   -2.0777927358    2.0517059668
C        2.8378666983   -1.1425980732    0.8533180488
C       -0.0860342633   -0.0368710092   -1.2970884249
C        5.2892178242   -0.7573591058   -1.0673628559
N        3.5595591524    1.1235953379    1.5280663291
N        4.8383113280    0.1650380759   -0.0288837544
N        1.5046048321   -0.8235634421    0.3913160817
O        2.0581787999   -0.9992998620   -1.8197226585
H        4.6089385396    3.0013261130    1.5670479605
H        6.1970301525    1.8033160657   -0.3704741018
H        4.3491050599   -2.7561595825    0.5278204121
H        2.6267254569   -3.2280746682    0.1457892540
H        1.9086380967   -2.4065630018    2.4389943598
H        3.6314489963   -1.8896964413    2.7990188867
H       -0.7814684116   -0.0101183791   -0.4537210246
H       -0.5336315759   -0.5982764212   -2.1199227509
H        0.0834233971    0.9866755981   -1.6462555042
H        4.4221605954   -1.2334458168   -1.5265695794
H        5.9676455044   -1.5136884673   -0.6594613671
H        5.8217836504   -0.1867352902   -1.8302779952
H        0.9463586523   -0.2760350770    1.0366909283
26   
torsion grid (75,)
C        4.6365813973    2.0277051157    1.2972724430
C        5.3032039755    1.5201315062    0.2021431280
C        3.7074100554    0.1320788280    0.8519113897
C        1.1779925173   -0.7027239139   -1.0216098470
C        3.2102403031   -2.4357727246    0.7844717368
C        2.7237310819   -1.8896803180    2.1026451871
C        2.7428016762   -1.0012695194    0.8736748774
C       -0.1729225349   -0.1385747476   -1.4269215998
C        5.0729593091   -0.5782855291   -1.1802069141
N        3.6438734669    1.1608082691    1.6903525674
N        4.6973541387    0.3127350418   -0.0855929914
N        1.4376095542   -0.6999035642    0.3254910893
O        1.9701926230   -1.1431130369   -1.8554370445
H        4.8169802808    2.9599482534    1.8172579213
H        6.1313920891    1.8929520789   -0.3844684967
H        4.2740759153   -2.6094726197    0.6639644505
H        2.5711930048   -3.1174819622    0.2350063708
H        1.7493251580   -2.2110845535    2.4575625671
H        3.4495467584   -1.6647185302    2.8762954470
H       -0.8449445773    0.0375306078   -0.5825158416
H       -0.6460773025   -0.8298010760   -2.1278990263
H       -0.0117091295    0.8073849492   -1.9530565963
H        4.1882811036   -1.1029279310   -1.5403568430
H        5.8343840720   -1.2953102584   -0.8546478078
H        5.4809627768    0.0212586753   -1.9966461197
H        0.8365705578   -0.1390040303    0.9178805387
26   
torsion grid (90,)
C        4.8026197687    1.9295118181    1.5124337411
C        5.3325903472    1.5452843716    0.2992827891
C        3.7022497414    0.1758595821    0.9030173921
C        1.1609815832   -0.8247610427   -1.0817476890
C        3.1661422785   -2.3728957882    0.8391130192
C        2.6145427737   -1.7996980582    2.1197407869
C        2.7069702436   -0.9315318391    0.8812312091
C       -0.1930198902   -0.3099090957   -1.5421271316
C        4.9011046753   -0.3692705036   -1.2815334266
N        3.7921617424    1.0710480468    1.8803569290
N        4.6225071859    0.4263294452   -0.0888759638
N        1.4449455244   -0.6229197923    0.2426070436
O        1.9250151481   -1.3994635970   -1.8591125996
H        5.0913627678    2.7676570394    2.1338282778
H        6.1304174818    1.9493158311   -0.3086498583
H        4.2352752651   -2.5465885427    0.7727251061
H        2.5544661993   -3.0607988489    0.2672089250
H        1.6188874685   -2.1087982971    2.4227635283
H        3.2960248720   -1.5624760666    2.9288308071
H       -0.7916250779    0.1372594468   -0.7437708799
H       -0.7496976490   -1.1401162532   -1.9843948690
H       -0.0337269081    0.4339336186   -2.3277288203
H        4.0288704960   -0.9704169152   -1.5358967682
H        5.7667372514   -1.0191802387   -1.1129485963
H        5.1187529384    0.3002243664   -2.1173790516
H        0.8205306520   -0.0285673260    0.7741033833
26   
torsion grid (105,)
C        5.0828253381    1.6872661780    1.7129764117
C        5.4553736453    1.4399257185    0.4095651647
C        3.7973715746    0.1012847137    1.0115022882
C        1.2326625372   -1.0095846449   -1.0591168338
C        3.1330357133   -2.4124776097    1.0055078958
C        2.5253516351   -1.7568315649    2.2184346230
C        2.7425857189   -0.9486579163    0.9543536684
C       -0.0841484648   -0.4731256627   -1.5984170683
C        4.6977228216   -0.1879304364   -1.3570567853
N        4.0533867856    0.8497567681    2.0783970657
N        4.6334846176    0.4223578723   -0.0333808246
N        1.5524808428   -0.5988383032    0.2080508722
O        1.9344942575   -1.7690916407   -1.7287016581
H        5.4966669935    2.4127689311    2.4016914903
H        6.2126018348    1.8756442436   -0.2278758284
H        4.1967236849   -2.6281526706    1.0171318873
H        2.5325300111   -3.0992680335    0.4213882555
H        1.4961628608   -2.0038773615    2.4600174079
H        3.1594493824   -1.5103840843    3.0621654403
H       -0.5982033194    0.2107661398   -0.9172716240
H       -0.7417809779   -1.3192631596   -1.8155861786
H        0.1100393445    0.0413782174   -2.5431569507
H        3.9986780853   -1.0209802596   -1.4171265445
H        5.7126295219   -0.5483736386   -1.5493756612
H        4.4279730330    0.5434072810   -2.1252904879
H        0.9444370942    0.0794209249    0.6501852923
26   
torsion grid (120,)
C        5.3120229927    1.5675567692    1.8205725599
C        5.5466754392    1.4621754118    0.4671725978
C        3.8760811317    0.1395040975    1.0723119133
C        1.3598534037   -1.0736698137   -1.0765866075
C        3.1316109611   -2.3446718649    1.1521620650
C        2.4601915028   -1.6088212211    2.2812885090
C        2.7876085258   -0.8741073180    0.9950235443
C        0.0724700996   -0.5577804487   -1.7014966441
C        4.5113904643    0.1031942549   -1.3902784100
N        4.2734496118    0.7415053094    2.1873741199
N        4.6327432841    0.5396070907   -0.0046619160
N        1.6692135913   -0.5298155320    0.1436407100
O        2.0490540894   -1.9222902744   -1.6428154530
H        5.8295430457    2.1844407567    2.5440437231
H        6.2612047318    1.9398963151   -0.1889916784
H        4.1865098558   -2.5800409759    1.2500949130
H        2.5561303933   -3.0478544674    0.5626437687
H        1.4090248452   -1.8144585812    2.4588728704
H        3.0414223122   -1.3308198050    3.1526666630
H       -0.3979077292    0.2569646464   -1.1437120950
H       -0.6349720243   -1.3885278350   -1.7771782633
H        0.2891209105   -0.2192217346   -2.7176842828
H        4.0772825432   -0.8955122084   -1.4329213965
H        5.5030346539    0.0846743880   -1.8480883943
H        3.8695578611    0.7842848060   -1.9592036837
H        1.0471933355    0.1810746629    0.5082664641
26   
torsion grid (135,)
C        5.5064298586    1.3811718164    1.7987502770
C        5.5957559914    1.4230802289    0.4256460025
C        3.9021857548    0.1403785926    1.0550391564
C        1.4183049792   -1.1457358341   -1.1050146534
C        3.0681585985   -2.3001458245    1.2633503481
C        2.3745826241   -1.4761743751    2.3139560068
C        2.7743574714   -0.8319856409    0.9983222327
C        0.1421075556   -0.6800669324   -1.7895726533
C        4.3183161646    0.3256160760   -1.4516227636
N        4.4540902801    0.5800449461    2.1802140784
N        4.5751176660    0.6175180126   -0.0461818209
N        1.7013713443   -0.5174735866    0.0814199930
O        2.1267575558   -2.0213893415   -1.6001763176
H        6.1340616407    1.8789104431    2.5267641962
H        6.2694777260    1.9357919980   -0.2468581174
H        4.1117916850   -2.5520979984    1.4199012842
H        2.4980442528   -3.0242236616    0.6940438439
H        1.3108172662   -1.6390216574    2.4587555746
H        2.9322458166   -1.1601081365    3.1876946783
H       -0.3421148451    0.1692164343   -1.2990984902
H       -0.5613018265   -1.5171482236   -1.8209823731
H        0.3775195809   -0.4122814245   -2.8225442955
H        4.0323223565   -0.7192235901   -1.5760237421
H        5.2299923231    0.5162565554   -2.0209075365
H        3.5168011948    0.9594595590   -1.8447121544
H        1.0545861593    0.1963484803    0.3934413382
26   
torsion grid (150,)
C        5.6941566018    1.1076165585    1.7737982376
C        5.6481203589    1.3316523751    0.4176509322
C        3.9308394363    0.0836991553    1.0555739378
C        1.4908462811   -1.2197474871   -1.1144991089
C        2.9736814601   -2.2871505619    1.3954015806
C        2.2839571094   -1.3696979295    2.3662347135
C        2.7503621736   -0.8276895490    1.0246570890
C        0.2239634466   -0.8203407332   -1.8554141618
C        4.1472369490    0.5616532221   -1.4482101475
N        4.6274736481    0.3289145143    2.1596548213
N        4.5233297529    0.6658658312   -0.0418781678
N        1.7152764018   -0.5434748251    0.0588334381
O        2.2493862362   -2.0799617781   -1.5572769011
H        6.4258189612    1.4628415847    2.4880251737
H        6.2859406035    1.8912802412   -0.2521800374
H        4.0009859485   -2.5660130272    1.6029823922
H        2.3912594781   -3.0228366141    0.8535184346
H        1.2101452748   -1.4778501376    2.4885152093
H        2.8340964921   -1.0231731861    3.2332933753
H       -0.3112496443    0.0190368652   -1.4022235499
H       -0.4441339333   -1.6855573232   -1.8935626132
H        0.4865993894   -0.5651385210   -2.8850995454
H        3.9643145624   -0.4791053236   -1.7184176005
H        4.9704950241    0.9456471375   -2.0527624605
H        3.2509522553    1.1512356830   -1.6613695743
H        1.0273809622    0.1458399399    0.3356148040
26   
torsion grid (165,)
C        5.8559736479    0.8838094333    1.6550333156
C        5.6804037986    1.2842217508    0.3524116804
C        3.9640383884    0.0498685769    1.0201694562
C        1.5969947772   -1.2778204061   -1.1216383483
C        2.8605903130   -2.2029586174    1.5755633800
C        2.2004438980   -1.1586588396    2.4303954234
C        2.7231412615   -0.7800627571    1.0514682265
C        0.3596528238   -0.9649312539   -1.9484844595
C        3.9597037186    0.8510314764   -1.4201437054
N        4.7883953183    0.1162531880    2.0593541660
N        4.4683993311    0.7444871834   -0.0555312304
N        1.7192630674   -0.5583358403    0.0416264489
O        2.4269846901   -2.1053364139   -1.4889976557
H        6.6806913070    1.1053022990    2.3201491152
H        6.2792508323    1.8900064180   -0.3129404411
H        3.8673593740   -2.5075997618    1.8375748805
H        2.2486296802   -2.9570146034    1.0939883481
H        1.1202752136   -1.1982977278    2.5414075559
H        2.7569921009   -0.7586302665    3.2702293792
H       -0.2650982337   -0.1697472218   -1.5315573313
H       -0.2391135628   -1.8757755037   -2.0368474027
H        0.6739323030   -0.6824085233   -2.9566345381
H        3.8450682575   -0.1385786697   -1.8651833226
H        4.6815382805    1.4207615927   -2.0073202850
H        3.0017871613    1.3757250663   -1.4441703189
H        0.9883740967    0.1054976399    0.2635640083
26   
torsion grid (180,)
C        6.0118275979    0.6119946684    1.4885910756
C        5.7270243307    1.2043892656    0.2826793559
C        4.0201852132   -0.0403238001    0.9557997336
C        1.7423173347   -1.3318732423   -1.1602400692
C        2.7515157590   -2.1240888556    1.7313841332
C        2.1433302922   -0.9535110672    2.4512159942
C        2.7176453222   -0.7644714479    1.0517487696
C        0.5514287863   -1.0911329254   -2.0748100155
C        3.8043383164    1.1353927832   -1.3213257051
N        4.9482765794   -0.1591120202    1.8972505502
N        4.4460804982    0.7873070471   -0.0575006392
N        1.7473048204   -0.5987845668    0.0014340519
O        2.6398308170   -2.1156766887   -1.4540235796
H        6.9138607739    0.6951820832    2.0810088728
H        6.2929271209    1.8640900582   -0.3597189471
H        3.7300213050   -2.4607552398    2.0526315640
H        2.0956916595   -2.8808517304    1.3154352422
H        1.0612217500   -0.9129285506    2.5473450117
H        2.7123971871   -0.5030306698    3.2568993318
H       -0.1434512978   -0.3299825949   -1.7081891751
H        0.0110934090   -2.0338801696   -2.1977619389
H        0.9189413161   -0.7950851134   -3.0608768504
H        3.6860529380    0.2513701831   -1.9509697426
H        4.4436184574    1.8521103501   -1.8393101434
H        2.8308784070    1.6001405381   -1.1544903694
H        0.9772723374    0.0343438878    0.1720042097
