23   
torsion grid (-165,)
C        1.0336313363   -0.4955707320   -0.3524277686
C        1.9025438216   -0.7809981347    0.8807433113
C        3.1327666280   -1.6764397558    0.6265574569
C        4.1507207483   -1.0559362765   -0.3547215435
C        4.8211727755    0.2403313252    0.1201198884
C        3.7664210262   -2.0771028306    1.9746133274
C        4.9722721257   -3.0184854362    1.8704156458
H        0.3494266542    0.3393994727   -0.1667681615
H        0.4435504168   -1.3718329771   -0.6423651699
H        1.6401914915   -0.2072967087   -1.2170092042
H        1.2813176223   -1.2513257340    1.6532121841
H        2.2405535451    0.1690655911    1.3133261311
H        2.7717015676   -2.6031480586    0.1535956862
H        3.6566192835   -0.8699089753   -1.3147885312
H        4.9262535347   -1.7995766674   -0.5700787169
H        5.5326474772    0.6018124389   -0.6300832582
H        5.3751636577    0.0946245032    1.0534145082
H        4.0915643813    1.0389252422    0.2898267184
H        4.0552791756   -1.1738710424    2.5274296236
H        2.9910711688   -2.5613178753    2.5818034942
H        5.2915315557   -3.3541191336    2.8631014320
H        5.8323602637   -2.5339964892    1.3973448281
H        4.7282065754   -3.9101169336    1.2805132840
23   
torsion grid (-150,)
C        0.6350402397   -0.9137729942   -0.0966175760
C        1.6209674015   -1.1446296600    1.0638910676
C        2.8585790429   -1.9934536563    0.7046194542
C        3.8132622165   -1.2810357199   -0.2788714311
C        4.5292725275   -0.0404127605    0.2727946356
C        3.5657444026   -2.4625379503    1.9918888059
C        4.7874389093   -3.3613471465    1.7665752448
H        0.1111507612    0.0425221717    0.0033643032
H       -0.1102979401   -1.7131676427   -0.1603549013
H        1.1512639433   -0.8763172534   -1.0615568836
H        1.0916319046   -1.6248169524    1.8956305260
H        1.9615354299   -0.1781679312    1.4545260736
H        2.4975562266   -2.8971871651    0.1891744547
H        3.2545730027   -0.9962697638   -1.1777241745
H        4.5650320545   -2.0009876445   -0.6219271534
H        5.1728346099    0.4027979510   -0.4947223602
H        5.1637051980   -0.2830109845    1.1315505516
H        3.8225096314    0.7325800374    0.5917233434
H        3.8585849454   -1.5894453197    2.5892713692
H        2.8334613078   -3.0073451921    2.6011402117
H        5.1708697057   -3.7446501837    2.7184424901
H        5.6066509901   -2.8263260487    1.2757181565
H        4.5325098418   -4.2238880689    1.1392366502
23   
torsion grid (-135,)
C        0.5734983399   -0.9238461722   -0.1300930094
C        1.5781225781   -1.1736312437    1.0172797074
C        2.7985324531   -2.0347836091    0.6306440599
C        3.7332154224   -1.3256179802   -0.3743060088
C        4.4838539880   -0.1020712199    0.1695381665
C        3.5321768618   -2.5135904358    1.8987218140
C        4.7372628058   -3.4256047012    1.6393916276
H        0.2559722383    0.1226471311   -0.1771900989
H       -0.3231427987   -1.5425049787   -0.0245780980
H        1.0089439411   -1.1586746519   -1.1068661413
H        1.0607332473   -1.6590626228    1.8529352032
H        1.9358731886   -0.2168916097    1.4150278292
H        2.4154346922   -2.9331120093    0.1220612582
H        3.1486317795   -1.0202617603   -1.2499536305
H        4.4632709642   -2.0513229748   -0.7507697651
H        5.1013636624    0.3479291622   -0.6152243808
H        5.1488814878   -0.3656657569    0.9983971443
H        3.7983128228    0.6722624890    0.5291426499
H        3.8502695969   -1.6450591014    2.4897283020
H        2.8097697842   -3.0514984882    2.5257213953
H        5.1430922157   -3.8136974345    2.5799578502
H        5.5479903586   -2.8991696046    1.1256758452
H        4.4554243827   -4.2848916309    1.0191613057
23   
torsion grid (-120,)
C        0.6813203269   -0.8285913480   -0.1883663058
C        1.6347493981   -1.1236093840    0.9942105329
C        2.8658643415   -1.9779263162    0.6298809924
C        3.8060205868   -1.2656367873   -0.3674563386
C        4.5272995432   -0.0251234328    0.1773163473
C        3.5856018416   -2.4456234976    1.9095591552
C        4.7957156300   -3.3563064178    1.6697578064
H        0.5766562951    0.2442945272   -0.3780645608
H       -0.3240699800   -1.2170667256    0.0028271260
H        1.0286568334   -1.2906047698   -1.1180764701
H        1.0827105352   -1.6489780221    1.7822187514
H        1.9705720885   -0.1860425717    1.4516031960
H        2.4933469006   -2.8800544312    0.1205597201
H        3.2284102027   -0.9773830727   -1.2536099562
H        4.5533131043   -1.9827516966   -0.7262947351
H        5.1515386492    0.4278387899   -0.6003741239
H        5.1813123954   -0.2701123875    1.0205937263
H        3.8222592737    0.7407020661    0.5171530131
H        3.8955709046   -1.5722981952    2.4976679936
H        2.8573918316   -2.9804579114    2.5326123670
H        5.1925326237   -3.7366765562    2.6172940281
H        5.6103255027   -2.8307968474    1.1612058319
H        4.5231499654   -4.2206628647    1.0524466955
23   
torsion grid (-105,)
C        0.7338084107   -0.7765747629   -0.2049098189
C        1.6433830670   -1.1475054625    0.9871266662
C        2.8678402020   -2.0060578521    0.6132507782
C        3.8035210109   -1.2952086987   -0.3887626472
C        4.5151261442   -0.0466418239    0.1498843010
C        3.5920455779   -2.4831663905    1.8866291452
C        4.7906145165   -3.4060673387    1.6358178337
H        0.8563692401    0.2676923672   -0.5099303339
H       -0.3231120512   -0.8956905069    0.0564328543
H        0.9224066062   -1.4111033733   -1.0770355776
H        1.0591735649   -1.7132377289    1.7229573124
H        1.9711908465   -0.2409658284    1.5087623876
H        2.4850691163   -2.9029985629    0.1026473542
H        3.2218336498   -1.0161047769   -1.2751746764
H        4.5554575273   -2.0091305425   -0.7442990680
H        5.1384484867    0.4064917676   -0.6284344864
H        5.1682316678   -0.2821913992    0.9966318055
H        3.8030955662    0.7156224450    0.4834455849
H        3.9162690892   -1.6141416597    2.4732925414
H        2.8628919366   -3.0107586927    2.5148972093
H        5.1886352915   -3.7953535087    2.5792128077
H        5.6079184333   -2.8866083137    1.1253236172
H        4.5054425612   -4.2643860581    1.0157650040
23   
torsion grid (-90,)
C        1.1712047913   -0.3826371543   -0.2786708863
C        1.9684908542   -0.9202854537    0.9231225630
C        3.1294076186   -1.8621871968    0.5482312585
C        4.1461243525   -1.2001220736   -0.4065332868
C        4.9208150896   -0.0134499787    0.1822969978
C        3.7764712917   -2.4391073470    1.8219325278
C        4.8937250016   -3.4586412824    1.5700659314
H        1.5845634127    0.5571049850   -0.6596449125
H        0.1358316683   -0.1671771929    0.0078857147
H        1.1391739272   -1.1057431788   -1.1009666151
H        1.2905829565   -1.4809157452    1.5790210191
H        2.3409878597   -0.0850029164    1.5281666038
H        2.6883910135   -2.7069247505   -0.0028479809
H        3.6160871331   -0.8670317326   -1.3064230575
H        4.8597323425   -1.9577389573   -0.7503110344
H        5.6014050687    0.4107587168   -0.5636841071
H        5.5250688828   -0.3092297269    1.0463275342
H        4.2501278952    0.7890419010    0.5073046546
H        4.1625539864   -1.6200042966    2.4419781061
H        2.9875705865   -2.9163323661    2.4175511459
H        5.2324153254   -3.9078745546    2.5099844450
H        5.7663073933   -3.0005749270    1.0933983780
H        4.5486222035   -4.2705265889    0.9187066143
23   
torsion grid (-75,)
C        1.3852644510   -0.1983297559   -0.3603092928
C        2.1556199036   -0.7706518840    0.8372238815
C        3.3564746360   -1.6621359042    0.4639435085
C        4.3754892471   -0.9476142057   -0.4491311406
C        5.0734221264    0.2687964310    0.1738254473
C        3.9904416859   -2.2490651603    1.7403584771
C        5.1435553439   -3.2296149318    1.4953465596
H        1.9288496225    0.6197317714   -0.8442304903
H        0.4181789341    0.2066797536   -0.0422914866
H        1.1899990286   -0.9690158094   -1.1150890838
H        1.4690276983   -1.3728252416    1.4460749929
H        2.4870619002    0.0492421725    1.4867575602
H        2.9587015682   -2.5080103863   -0.1177376208
H        3.8659454738   -0.6349147435   -1.3677374404
H        5.1345969368   -1.6706430368   -0.7687335563
H        5.7708604697    0.7206470671   -0.5396641558
H        5.6477028127   -0.0035301043    1.0656116573
H        4.3566742369    1.0433771377    0.4665975260
H        4.3365686842   -1.4332730107    2.3877961446
H        3.2018449438   -2.7624611457    2.3054706495
H        5.4679561932   -3.6934925657    2.4331996798
H        6.0160333772   -2.7348974913    1.0566668474
H        4.8410496163   -4.0336797461    0.8137878740
23   
torsion grid (-60,)
C        1.2542799490   -0.3278606572   -0.3359732025
C        2.0591612552   -0.8745397126    0.8488599302
C        3.2762522598   -1.7419154374    0.4692904148
C        4.2858599649   -1.0127805589   -0.4427198064
C        4.9421870904    0.2330032470    0.1671987297
C        3.9205032359   -2.3154164916    1.7476766087
C        5.0954941962   -3.2710820141    1.5082864711
H        1.8625985621    0.3057052334   -0.9889370929
H        0.4035063401    0.2692571165    0.0092384414
H        0.8591825293   -1.1444516169   -0.9524664644
H        1.3940726592   -1.4758177446    1.4818473953
H        2.3918243358   -0.0391207880    1.4783353604
H        2.8968940368   -2.5972905884   -0.1111807791
H        3.7839898335   -0.7319014877   -1.3754615541
H        5.0685046470   -1.7206668834   -0.7379976233
H        5.6482628041    0.6818550017   -0.5396580304
H        5.4989913087   -0.0055595861    1.0795576062
H        4.2026394457    0.9992205823    0.4224763514
H        4.2464097157   -1.4921700646    2.3962876392
H        3.1415479851   -2.8458397750    2.3102516958
H        5.4224123982   -3.7301739690    2.4476299947
H        5.9610600677   -2.7577993875    1.0774199780
H        4.8145877777   -4.0798102555    0.8229965644
23   
torsion grid (-45,)
C        1.1449394479   -0.4796241971   -0.2056053036
C        2.0420320484   -1.0122600676    0.9208693620
C        3.2087787420   -1.9105240349    0.4613982574
C        4.2280241494   -1.1783957875   -0.4384156633
C        4.9921943069   -0.0269929138    0.2291069679
C        3.8626233815   -2.5763493780    1.6895810098
C        5.0081974643   -3.5440376654    1.3696895547
H        1.7250489141   -0.1032529371   -1.0534932682
H        0.4932245718    0.3261411291    0.1472720789
H        0.5021179235   -1.2768451200   -0.5981638776
H        1.4235253372   -1.5763531647    1.6300305471
H        2.4498517215   -0.1689906659    1.4925664721
H        2.7789556560   -2.7186899219   -0.1509638596
H        3.7132750667   -0.7955551133   -1.3266722268
H        4.9489412593   -1.9113836387   -0.8177076031
H        5.6969686815    0.4259808746   -0.4764273618
H        5.5693947186   -0.3684744172    1.0947765283
H        4.3187835736    0.7652656449    0.5721158257
H        4.2210419875   -1.8017989169    2.3798322605
H        3.0812596930   -3.1210493084    2.2346282392
H        5.3412306277   -4.0659789387    2.2733843109
H        5.8780890175   -3.0274718080    0.9516921753
H        4.6934056598   -4.3035279009    0.6439908621
23   
torsion grid (-30,)
C        0.7942251215   -0.8141399162   -0.1275522673
C        1.7750939403   -1.2449171825    0.9790544002
C        2.9884586623   -2.0604237806    0.4858349690
C        3.9599603263   -1.2294670456   -0.3813920091
C        4.7119446426   -0.1100519247    0.3518117963
C        3.6850657012   -2.7418347143    1.6806368257
C        4.8809244325   -3.6275857941    1.3111624371
H        1.2964363145   -0.6676773876   -1.0887268210
H        0.2670831839    0.1105508124    0.1269262373
H        0.0363644382   -1.5879473129   -0.2962167310
H        1.2335256820   -1.8328800819    1.7296061278
H        2.1429916935   -0.3597075853    1.5119658575
H        2.6021890732   -2.8636675779   -0.1610220622
H        3.4067233860   -0.7925841497   -1.2205792578
H        4.6903568669   -1.9071763060   -0.8379342901
H        5.3642536113    0.4308081035   -0.3422012357
H        5.3430295998   -0.5009715275    1.1566292649
H        4.0279192433    0.6217754291    0.7936821984
H        4.0032004933   -1.9798565829    2.4038616384
H        2.9393247525   -3.3544141423    2.2030028595
H        5.2563165052   -4.1630655609    2.1899860872
H        5.7131666819   -3.0454560684    0.9027665028
H        4.6005958825   -4.3760635089    0.5603519139
23   
torsion grid (-15,)
C        0.8120465162   -0.7767275968   -0.1913471662
C        1.7944722875   -1.2109248923    0.9197346462
C        3.0034500269   -2.0324923911    0.4262169766
C        3.9651975134   -1.2052473465   -0.4553844471
C        4.7311528321   -0.0886787084    0.2676944807
C        3.7101473012   -2.7046430871    1.6196468603
C        4.9007458565   -3.5950223965    1.2442356057
H        1.2478021527   -0.8880911817   -1.1892207090
H        0.4965072606    0.2654008898   -0.0825373087
H       -0.0930742340   -1.3932821022   -0.1810414145
H        1.2553763978   -1.8007840918    1.6700234271
H        2.1653568255   -0.3296732595    1.4559645628
H        2.6105354273   -2.8398830765   -0.2111449667
H        3.3985583938   -0.7648098637   -1.2840226286
H        4.6866465326   -1.8840189625   -0.9245861559
H        5.3685168514    0.4563187904   -0.4368755964
H        5.3789207344   -0.4826398167    1.0576052940
H        4.0554327390    0.6402024659    0.7270302705
H        4.0369369647   -1.9373487550    2.3332834396
H        2.9688883049   -3.3118893722    2.1545664000
H        5.2858580375   -4.1234721151    2.1231040520
H        5.7285996950   -3.0172012866    0.8210323683
H        4.6109125443   -4.3494995188    0.5031184128
23   
torsion grid (0,)
C        0.9194401917   -0.6808077421   -0.2288415225
C        1.8532568218   -1.1621347573    0.9072747055
C        3.0722776459   -1.9802681827    0.4351044026
C        4.0384978912   -1.1513726248   -0.4397114342
C        4.7757889977   -0.0170641248    0.2853195582
C        3.7668687536   -2.6422783735    1.6408192192
C        4.9640677980   -3.5315104053    1.2840988416
H        1.2772181577   -1.0029214846   -1.2122488542
H        0.8442269973    0.4107469583   -0.2650637340
H       -0.0958188167   -1.0715157022   -0.1105935123
H        1.2820809762   -1.7838460172    1.6066081369
H        2.2012921774   -0.3071519897    1.4978982201
H        2.6890200675   -2.7917040503   -0.2025875810
H        3.4781241948   -0.7268770687   -1.2810172022
H        4.7767138376   -1.8246262639   -0.8905012593
H        5.4200175368    0.5288904487   -0.4122155226
H        5.4125039604   -0.3938428846    1.0924658787
H        4.0808811276    0.7072481465    0.7229668038
H        4.0840892755   -1.8695569845    2.3528078340
H        3.0212855526   -3.2478222086    2.1718017768
H        5.3397468849   -4.0550971126    2.1699255175
H        5.7954623589   -2.9531043439    0.8686459532
H        4.6854798211   -4.2899607620    0.5427314138
23   
torsion grid (15,)
C        0.9672725908   -0.6271082861   -0.2294834919
C        1.8603298081   -1.1832463442    0.9013121812
C        3.0704428510   -2.0048104857    0.4146414098
C        4.0308961116   -1.1770188692   -0.4670294619
C        4.7618264351   -0.0348812459    0.2517916940
C        3.7722862295   -2.6766410865    1.6104104181
C        4.9551337910   -3.5780860565    1.2369123107
H        1.1788574782   -1.1170511476   -1.1861977049
H        1.1407965741    0.4420471128   -0.3934852266
H       -0.0970464856   -0.7531846163   -0.0103439149
H        1.2595181032   -1.8364314847    1.5459030385
H        2.2015502321   -0.3680192131    1.5496394834
H        2.6744105762   -2.8098179020   -0.2231073017
H        3.4650712011   -0.7605013446   -1.3086728408
H        4.7719448281   -1.8483075762   -0.9161189726
H        5.4026618027    0.5121062855   -0.4480420140
H        5.4007392314   -0.4041891594    1.0607358123
H        4.0618676069    0.6865622261    0.6863940248
H        4.1073516099   -1.9089403437    2.3195352250
H        3.0265883220   -3.2745909694    2.1499295464
H        5.3351821190   -4.1089569897    2.1165096313
H        5.7880051057   -3.0071313609    0.8141129747
H        4.6598603060   -4.3307230285    0.4960693381
23   
torsion grid (30,)
C        1.5172688076   -0.0607731554   -0.3372461122
C        2.2968065927   -0.5706462639    0.8879756828
C        3.3042840067   -1.6953920629    0.5793309361
C        4.3522114805   -1.2818510216   -0.4764776469
C        5.3023681998   -0.1548764017   -0.0496767368
C        3.9312131292   -2.2177256302    1.8863131702
C        4.8922518127   -3.3995728683    1.7108554666
H        1.3844485988   -0.8538285690   -1.0822054480
H        2.0528671533    0.7487274695   -0.8457796375
H        0.5311109130    0.3241602365   -0.0602255654
H        1.5857471384   -0.9619148283    1.6266641162
H        2.8051905282    0.2654856407    1.3829903774
H        2.7299082472   -2.5255678926    0.1404980717
H        3.8287694423   -0.9781207723   -1.3904933485
H        4.9434903652   -2.1612229790   -0.7565663699
H        5.9968867397    0.0912205227   -0.8600560907
H        5.9025358525   -0.4357379083    0.8221311357
H        4.7584963552    0.7610277214    0.2048069376
H        4.4503846718   -1.3978798043    2.3988862616
H        3.1163448877   -2.5189764913    2.5571710736
H        5.2134592431   -3.7898853553    2.6826780375
H        5.7936887991   -3.1159906096    1.1582095102
H        4.4133461951   -4.2208629577    1.1643631684
23   
torsion grid (45,)
C        1.4044674736   -0.1250906969   -0.3111916965
C        2.1859765616   -0.6383565428    0.9057569821
C        3.2332936914   -1.7234496448    0.5868016778
C        4.2622967780   -1.2745088736   -0.4726162531
C        5.1519924919   -0.0932917696   -0.0627614214
C        3.8832916391   -2.2238296935    1.8917506670
C        4.8816452022   -3.3741446544    1.7150080718
H        1.0753130442   -0.9546003285   -0.9484147231
H        2.0145597868    0.5362928210   -0.9356137065
H        0.5185698468    0.4405150562   -0.0040991701
H        1.4780585381   -1.0606029623    1.6305805521
H        2.6663444218    0.2051797388    1.4173414220
H        2.6893344158   -2.5749070944    0.1495527560
H        3.7287069726   -1.0162324239   -1.3944764378
H        4.8985905879   -2.1277419173   -0.7338981737
H        5.8453362647    0.1657048961   -0.8701321051
H        5.7525857451   -0.3239673511    0.8234165545
H        4.5620292425    0.8015790349    0.1620847924
H        4.3776128844   -1.3867422451    2.4010710679
H        3.0814371008   -2.5501964673    2.5665100251
H        5.2148578719   -3.7549917439    2.6865569313
H        5.7739247784   -3.0613756002    1.1632735002
H        4.4294785567   -4.2098089498    1.1675018061
23   
torsion grid (60,)
C        1.6133897261   -0.0069154707   -0.4215207740
C        2.3866822382   -0.5349182718    0.7924882357
C        3.4574807939   -1.5981954147    0.4753592018
C        4.5135031511   -1.1164026626   -0.5421355452
C        5.3593151896    0.0828347788   -0.0935721876
C        4.0756436120   -2.1173327430    1.7892736028
C        5.0983488009   -3.2474680303    1.6216930525
H        1.0813684563   -0.8166160144   -0.9350727226
H        2.2685573537    0.4814805926   -1.1492915076
H        0.8638459369    0.7297623597   -0.1115323990
H        1.6736615782   -0.9689011686    1.5050680572
H        2.8558326165    0.3068813174    1.3178726622
H        2.9404466752   -2.4489810991    0.0048891315
H        4.0115384806   -0.8674692763   -1.4838666873
H        5.1790741432   -1.9532594019   -0.7820043248
H        6.0856379314    0.3532980592   -0.8675011631
H        5.9208968139   -0.1344610090    0.8211687792
H        4.7424016655    0.9667047014    0.0998260786
H        4.5392211342   -1.2836137981    2.3321011748
H        3.2585270560   -2.4713152514    2.4308818425
H        5.4029981470   -3.6454709943    2.5957525141
H        6.0046364437   -2.9084611745    1.1097968588
H        4.6794878428   -4.0771642048    1.0396886621
23   
torsion grid (75,)
C        1.2812773075   -0.2519492855   -0.2725037752
C        2.1529580442   -0.7035840559    0.9079637208
C        3.2043426270   -1.7825759350    0.5764953754
C        4.2514051451   -1.3194591093   -0.4594514122
C        5.1471423542   -0.1539543782   -0.0183899975
C        3.8402918523   -2.3017787708    1.8823121161
C        4.8670939773   -3.4261090606    1.7014870901
H        0.5283666922   -1.0085340503   -0.5216850976
H        1.8670647514   -0.0376223386   -1.1707254834
H        0.7327314163    0.6619624382   -0.0173093860
H        1.5010270526   -1.0827747982    1.7046880534
H        2.6648179436    0.1677706780    1.3356356300
H        2.6708619881   -2.6308470457    0.1197224950
H        3.7395284587   -1.0432919658   -1.3880214960
H        4.8839261211   -2.1744996025   -0.7233836680
H        5.8640513411    0.0992219291   -0.8068166040
H        5.7222158741   -0.3993647039    0.8806447108
H        4.5660056769    0.7487194752    0.1969024985
H        4.3050765426   -1.4664769773    2.4218574982
H        3.0322852046   -2.6616559999    2.5319161329
H        5.1838365787   -3.8244111093    2.6715573838
H        5.7662199991   -3.0816986709    1.1806763222
H        4.4462502963   -4.2567827212    1.1223269221
23   
torsion grid (90,)
C        0.8785552387   -0.5247132451   -0.1092276696
C        1.8440853004   -0.8923703917    1.0331869334
C        2.9086596623   -1.9483859901    0.6693778701
C        3.9352283253   -1.4370178957   -0.3654153412
C        4.8662785577   -0.3178548766    0.1211772413
C        3.5703414529   -2.4910685867    1.9518987113
C        4.6169852256   -3.5882122325    1.7237703196
H       -0.0051253894   -1.1720288702   -0.1065355730
H        1.3486202740   -0.5919012531   -1.0944537105
H        0.5093696979    0.5008332933    0.0024987707
H        1.2636672644   -1.2547669660    1.8899781253
H        2.3558275597    0.0104665321    1.3877749102
H        2.3839638288   -2.7933552711    0.1966842593
H        3.4018890254   -1.0900348341   -1.2577821282
H        4.5442512188   -2.2831775360   -0.7034791688
H        5.5488277869   -0.0128010159   -0.6792993011
H        5.4795951165   -0.6369596180    0.9702013592
H        4.3093470447    0.5722173474    0.4315636638
H        4.0243924238   -1.6620942790    2.5100742470
H        2.7782722875   -2.8871214112    2.6000060643
H        4.9599843167   -4.0048430595    2.6770602081
H        5.4986402751   -3.2118442211    1.1952477485
H        4.2022606102   -4.4121758497    1.1308032369
23   
torsion grid (105,)
C        0.8091177459   -0.5320159575   -0.1898138019
C        1.7742404595   -0.8358776484    0.9784327268
C        2.8993617062   -1.8365967685    0.6421749761
C        3.9083018582   -1.2747032149   -0.3839222810
C        4.7809244406   -0.1137174377    0.1130060939
C        3.5722723375   -2.3324584359    1.9370755787
C        4.6757238585   -3.3767912084    1.7296343378
H       -0.1543776665   -1.0337229754   -0.0536272808
H        1.2134110769   -0.8528959683   -1.1546153862
H        0.5966405574    0.5389936248   -0.2722641066
H        1.2028478225   -1.2275274998    1.8279090229
H        2.2288637678    0.0941424801    1.3388443406
H        2.4266939486   -2.7117184807    0.1697833382
H        3.3631582792   -0.9487678580   -1.2774216346
H        4.5597296776   -2.0889509814   -0.7215765590
H        5.4458603862    0.2339398001   -0.6849088958
H        5.4108085226   -0.4086436789    0.9585911598
H        4.1789256432    0.7433327972    0.4322690945
H        3.9773460410   -1.4765356335    2.4921676204
H        2.7941701694   -2.7627746906    2.5803022347
H        5.0338646134   -3.7629206822    2.6901649862
H        5.5398826201   -2.9619885847    1.2009613900
H        4.3078467651   -4.2285784900    1.1451549001
23   
torsion grid (120,)
C        1.0689153277   -0.3037363102   -0.3633014601
C        1.9633925077   -0.6352696768    0.8550458623
C        3.0845717605   -1.6553462811    0.5711838708
C        4.1177818534   -1.1301208753   -0.4498435375
C        4.9787110610    0.0466887155    0.0295576252
C        3.7250398742   -2.1222392126    1.8926185576
C        4.8184510609   -3.1858157697    1.7360212821
H        0.0210116518   -0.5557234173   -0.1729128738
H        1.3693408643   -0.8715025060   -1.2503132146
H        1.1094120256    0.7557996704   -0.6339865709
H        1.3406022120   -1.0369608791    1.6628765886
H        2.4059173538    0.2820427617    1.2597114948
H        2.6102705401   -2.5368131227    0.1128816889
H        3.5913175062   -0.8327274255   -1.3643860591
H        4.7759091395   -1.9549112834   -0.7465671638
H        5.6651566124    0.3669182774   -0.7615799929
H        5.5853217756   -0.2192304667    0.9014355429
H        4.3686630868    0.9138966072    0.3031652839
H        4.1310902483   -1.2562959471    2.4310500355
H        2.9289550207   -2.5237682566    2.5325846782
H        5.1514143169   -3.5510178916    2.7136354843
H        5.6987400500   -2.7956905594    1.2151883419
H        4.4518356752   -4.0480056107    1.1661912460
23   
torsion grid (135,)
C        1.2674089425   -0.1817331711   -0.4382163827
C        2.0785619193   -0.5648171617    0.8189238074
C        3.2023509194   -1.5893650908    0.5670422932
C        4.2560655591   -1.0753275768   -0.4380529659
C        5.0930619145    0.1183882038    0.0414517635
C        3.8130499160   -2.0482947748    1.9049938814
C        4.8986743745   -3.1238944763    1.7796139114
H        0.1917924705   -0.1750864102   -0.2356036326
H        1.4182719031   -0.9139025189   -1.2400767217
H        1.5481390058    0.7965562330   -0.8398849878
H        1.4011386420   -0.9979994666    1.5648042264
H        2.4942160749    0.3334803687    1.2900399007
H        2.7328114260   -2.4714778106    0.1054214841
H        3.7478640523   -0.7998622758   -1.3696214866
H        4.9285991168   -1.8991144856   -0.7036832642
H        5.7970734628    0.4317417528   -0.7368918862
H        5.6788193626   -0.1257433828    0.9338038485
H        4.4668786725    0.9836246884    0.2834759464
H        4.2180683054   -1.1808954457    2.4416968541
H        3.0011361015   -2.4348054023    2.5343930171
H        5.2090615889   -3.4831908239    2.7667924418
H        5.7926192629   -2.7466248249    1.2727041106
H        4.5351192447   -3.9878163768    1.2104350729
23   
torsion grid (150,)
C        1.2696600844   -0.2332559731   -0.4285802171
C        2.0384694186   -0.6070342333    0.8511674226
C        3.2316394754   -1.5558248971    0.6243018590
C        4.2649395711   -0.9838387765   -0.3700386930
C        4.9918057402    0.2841829547    0.0977777810
C        3.8485797568   -1.9632410149    1.9761062298
C        4.9956402074   -2.9762226010    1.8799042072
H        0.2133764322   -0.0385790750   -0.2159466438
H        1.2899686409   -1.0607795313   -1.1483537415
H        1.6896607355    0.6442969622   -0.9297358133
H        1.3508327998   -1.1049901940    1.5463161131
H        2.3725497971    0.3010532728    1.3675397581
H        2.8279407955   -2.4701753724    0.1630895705
H        3.7587781247   -0.7737136575   -1.3194175024
H        5.0069350946   -1.7574159974   -0.5989521202
H        5.6878553805    0.6354026343   -0.6715103622
H        5.5725501260    0.1084885874    1.0093792988
H        4.2923192225    1.1012626952    0.3040396121
H        4.1958080090   -1.0677496051    2.5070857926
H        3.0509687913   -2.3877533031    2.5993825709
H        5.3123533779   -3.3040645596    2.8759838014
H        5.8735196459   -2.5546094093    1.3798993348
H        4.6903906238   -3.8670372088    1.3179498809
23   
torsion grid (165,)
C        1.1561712159   -0.3283326835   -0.4003665072
C        1.9325272375   -0.6997474420    0.8702124381
C        3.1617706724   -1.5992449058    0.6337493487
C        4.1678975187   -0.9927447105   -0.3675114482
C        4.8235385410    0.3215344680    0.0770559054
C        3.8011428327   -1.9783587221    1.9839998119
C        4.9837215356   -2.9496200763    1.8873548571
H        0.1688084155    0.0762412224   -0.1531212077
H        0.9945032915   -1.2104224591   -1.0320061600
H        1.6829590926    0.4174168151   -1.0041382168
H        1.2580020515   -1.2288875641    1.5555546199
H        2.2348003301    0.2136282971    1.3979429811
H        2.7937044587   -2.5311143161    0.1774416711
H        3.6583463314   -0.8315291929   -1.3243985114
H        4.9510607937   -1.7306917986   -0.5754459058
H        5.5150002752    0.6864301317   -0.6900081759
H        5.3961040724    0.1984881983    1.0024049507
H        4.0814969342    1.1081814950    0.2501598477
H        4.1183477836   -1.0684433381    2.5092746189
H        3.0225937863   -2.4284278262    2.6133702015
H        5.3127589471   -3.2649331638    2.8834955710
H        5.8457200656   -2.4973276439    1.3865628680
H        4.7102204932   -3.8513880891    1.3264956906
23   
torsion grid (180,)
C        1.0194496620   -0.4688762507   -0.3601101906
C        1.8293259820   -0.8120725420    0.8956129424
C        3.0763974841   -1.6857636959    0.6520704663
C        4.0709928328   -1.0645555896   -0.3516804144
C        4.6821787009    0.2773297306    0.0732343973
C        3.7264737371   -2.0467324632    2.0030957246
C        4.9303351531   -2.9919208836    1.9104172717
H        0.1527949640    0.1515836946   -0.1070681914
H        0.6548901828   -1.3739354533   -0.8599334970
H        1.6133766250    0.0944374817   -1.0869852373
H        1.1775936556   -1.3361367746    1.6063736482
H        2.1295467722    0.1165572024    1.3978199708
H        2.7292392281   -2.6280575971    0.2003058241
H        3.5690542621   -0.9387793928   -1.3176108794
H        4.8783152391   -1.7819721741   -0.5371450185
H        5.3797698679    0.6415546484   -0.6885766632
H        5.2383831552    0.1920456197    1.0127649589
H        3.9166066477    1.0480214758    0.2115314728
H        4.0234682338   -1.1282055295    2.5253407119
H        2.9586257449   -2.5120318987    2.6343652625
H        5.2632966900   -3.2984315812    2.9080159126
H        5.7839558395   -2.5219163847    1.4116739484
H        4.6780048526   -3.9003315937    1.3503448715
