17   
torsion grid (-165,)
C        1.2082142559   -0.9062324688    0.8622888061
C        1.6721978014   -0.0393025373    2.0480231390
C        0.7049955130    1.0714688176   -0.7268672050
C       -0.4492241812    0.9759633364    0.2203933673
C        0.3133038070   -0.2976998130   -0.1547512435
C       -0.3659676179   -1.3041505248   -1.0638937562
O        1.5933837606   -2.0633228266    0.8220469058
O        2.3493018720    0.9645100825    1.9419135611
O        1.2706782058   -0.5554464005    3.2260966654
H        0.5017294212    1.1972808207   -1.7863112905
H        1.6193031123    1.5296833413   -0.3686332645
H       -0.3240696902    1.3881660494    1.2166606788
H       -1.4589499208    1.0438919207   -0.1726421072
H       -1.0066762177   -0.7904736623   -1.7868428622
H       -0.9846198258   -1.9955307312   -0.4837002882
H        0.3716352430   -1.8955520399   -1.6129388244
H        1.6484430637    0.0139219709    3.9264068321
17   
torsion grid (-150,)
C        1.3257816409   -0.8374771374    0.8028576091
C        1.6166338337   -0.0527215233    2.0922130384
C        0.7207943466    1.0648880775   -0.8225589843
C       -0.3890513414    1.0236778628    0.1846739167
C        0.3443590194   -0.2683332594   -0.1640897073
C       -0.4071741829   -1.3148998693   -0.9673853812
O        1.8889950142   -1.9073787226    0.6448610732
O        2.1599878221    1.0342454955    2.1202026942
O        1.2235559525   -0.7319832035    3.1870897349
H        0.4760356126    1.1469811619   -1.8776813653
H        1.6538819411    1.5297367932   -0.5231553244
H       -0.2118252556    1.4943031165    1.1456992467
H       -1.4138774357    1.0871227548   -0.1683958395
H       -1.0769107470   -0.8323613457   -1.6854381641
H       -1.0097102059   -1.9461197124   -0.3065937407
H        0.2825684026   -1.9608925172   -1.5166802242
H        1.4796341851   -0.1916126364    3.9616305318
17   
torsion grid (-135,)
C        0.5740369533   -1.0178697153    1.2017203053
C       -0.3684446962   -1.1330574817    2.4100115705
C        0.1094378227    1.1924690230    0.0132664473
C       -1.2107634078    0.4733677776    0.0593279037
C        0.0679777026   -0.3371373084   -0.0299685747
C        0.3863588238   -1.0648842271   -1.3240004761
O        1.6480651839   -1.5892994560    1.2702011136
O       -1.2378230301   -1.9737621723    2.4815887073
O       -0.0923421123   -0.2315677034    3.3779626363
H        0.4132425805    1.6851772931   -0.9057498036
H        0.4634099415    1.6694410254    0.9224508833
H       -1.7640501365    0.4845355977    0.9938752749
H       -1.8375892068    0.4805374969   -0.8270876634
H        0.0638931687   -0.4698307710   -2.1839107864
H       -0.1342779341   -2.0270602113   -1.3586308160
H        1.4598432800   -1.2506220275   -1.4140856800
H       -0.6963631754   -0.4188520321    4.1254221152
17   
torsion grid (-120,)
C        0.6241866367   -0.8717863450    1.2492355026
C       -0.3696845812   -1.1870838277    2.3781059494
C        0.1540210801    1.2422966262   -0.1126472432
C       -1.1818195801    0.5605857321    0.0647722890
C        0.0740918858   -0.2762007584   -0.0147208745
C        0.3288506462   -1.1217560519   -1.2519699597
O        1.7790321598   -1.2323077591    1.3834860365
O       -1.2220499769   -2.0422314822    2.2670790124
O       -0.1572691232   -0.4555796344    3.4915198606
H        0.4136055364    1.6505288110   -1.0852530856
H        0.5619410107    1.7924864035    0.7303437651
H       -1.6790152975    0.6705581962    1.0249376682
H       -1.8592685822    0.5125536130   -0.7824114052
H       -0.0131953120   -0.5939778649   -2.1476343216
H       -0.2121775156   -2.0711382149   -1.1866960974
H        1.3957513308   -1.3347477230   -1.3622129097
H       -0.7923885598   -0.7706146129    4.1664589704
17   
torsion grid (-105,)
C        0.6479959787   -0.7286267666    1.2991796653
C       -0.3636886861   -1.2469832620    2.3356790232
C        0.1970930330    1.2787258276   -0.2326286992
C       -1.1536462926    0.6567772153    0.0609270599
C        0.0769159396   -0.2137196935    0.0053043218
C        0.2733073951   -1.1731746677   -1.1593244869
O        1.8367911679   -0.8538478778    1.5207767598
O       -1.1922079174   -2.0915057104    2.0652878705
O       -0.1967695143   -0.7013895400    3.5565020634
H        0.4174602799    1.5969867043   -1.2476300732
H        0.6562686988    1.8889528711    0.5396122785
H       -1.6002272703    0.8663519678    1.0300714080
H       -1.8727306809    0.5584536424   -0.7468940441
H       -0.1060836955   -0.7246537726   -2.0828969725
H       -0.2672817414   -2.1091435777   -0.9863969848
H        1.3348782749   -1.3995700277   -1.2964337166
H       -0.8434632117   -1.1320482250    4.1512576841
17   
torsion grid (-90,)
C        0.6352094348   -0.5878844306    1.3549988399
C       -0.3590135302   -1.3033750578    2.2938062193
C        0.2462667002    1.2967680398   -0.3404109484
C       -1.1241231045    0.7587341314    0.0336067877
C        0.0751146903   -0.1578101131    0.0250768241
C        0.2167121760   -1.2184110736   -1.0584380662
O        1.7945296817   -0.4583351355    1.6928581550
O       -1.1921052017   -2.0922446848    1.8957747817
O       -0.1741909488   -0.9804943985    3.5884304238
H        0.4463229568    1.5266802753   -1.3830684613
H        0.7486872918    1.9481993710    0.3683686608
H       -1.5370066254    1.0659985544    0.9917443064
H       -1.8669079718    0.6178423854   -0.7462566716
H       -0.1863333501   -0.8405641180   -2.0034779737
H       -0.3305544057   -2.1273124158   -0.7916038332
H        1.2706601684   -1.4708080906   -1.2127053498
H       -0.8186562039   -1.5053981315    4.1036894631
17   
torsion grid (-75,)
C        0.5560847572   -0.4117625663    1.4320965978
C       -0.3768626185   -1.3135040407    2.2840728712
C        0.2855052207    1.3011968265   -0.4493521424
C       -1.1095503885    0.8538962312   -0.0550202854
C        0.0580753395   -0.1040966606    0.0477320672
C        0.1818820792   -1.2607923616   -0.9346891186
O        1.5851037758    0.0157494614    1.9140511400
O       -1.3837257919   -1.8397407658    1.8538831175
O        0.0576224866   -1.4421401404    3.5518213128
H        0.5082309715    1.4255884594   -1.5051181883
H        0.8032476996    1.9932212194    0.2073768129
H       -1.5278897273    1.2589338869    0.8628214047
H       -1.8439965612    0.6534327415   -0.8298923286
H       -0.2022452850   -0.9578298441   -1.9137425215
H       -0.3907810964   -2.1308306118   -0.6013523046
H        1.2306731403   -1.5506852131   -1.0589470279
H       -0.5867622438   -2.0190515143    4.0066517505
17   
torsion grid (-60,)
C        0.4332117318   -0.2568683086    1.5080924468
C       -0.3874071244   -1.3171118091    2.2835904428
C        0.3342209785    1.2967215748   -0.5133390718
C       -1.0886210783    0.9372352659   -0.1505366562
C        0.0378663270   -0.0603458998    0.0766733498
C        0.1513206623   -1.2923687483   -0.8078270917
O        1.2432487108    0.4183829410    2.1139264454
O       -1.5300537661   -1.6152196687    2.0002382355
O        0.2924756130   -1.8317561063    3.3255569170
H        0.6030697228    1.3272100579   -1.5650913989
H        0.8550088847    2.0113441664    0.1153531682
H       -1.5300328170    1.4154388253    0.7188590519
H       -1.7956171556    0.6948930246   -0.9389118048
H       -0.1845685077   -1.0562891250   -1.8220425129
H       -0.4666391792   -2.1156642854   -0.4369060112
H        1.1910375999   -1.6312386457   -0.8703869601
H       -0.3139088447   -2.4527781514    3.7751446076
17   
torsion grid (-45,)
C        0.2992897306   -0.1636878874    1.5596820714
C       -0.3613219208   -1.3546405728    2.2844573377
C        0.3923139735    1.2810820625   -0.5318108929
C       -1.0580049820    1.0132813542   -0.2294202192
C        0.0048811169   -0.0371840224    0.1012763571
C        0.0826710785   -1.3095252284   -0.7260045867
O        0.8920925498    0.6619644067    2.2320035609
O       -1.5205762663   -1.6717822328    2.1114876394
O        0.4682367903   -1.9537399398    3.1598181667
H        0.7165720057    1.2440815532   -1.5674234481
H        0.9166399462    1.9933456444    0.0963609784
H       -1.5143083978    1.5453550098    0.5993549339
H       -1.7345988997    0.7638439191   -1.0417602541
H       -0.1580068488   -1.0920098869   -1.7707167075
H       -0.6235432587   -2.0671143582   -0.3739490048
H        1.0932658861   -1.7316985753   -0.7002430487
H       -0.0509907458   -2.6499861383    3.6092802739
17   
torsion grid (-30,)
C        0.1518877256   -0.1156975210    1.5931455966
C       -0.3119484845   -1.4110236713    2.2836183906
C        0.4552387593    1.2559578884   -0.5190963182
C       -1.0189464627    1.0882293101   -0.3038057811
C       -0.0518968244   -0.0263348136    0.1194843880
C       -0.0163395718   -1.3167870291   -0.6812979739
O        0.5388686246    0.7994529486    2.3016394119
O       -1.4276799140   -1.8686589674    2.1434969112
O        0.6289774244   -1.9326804770    3.0939646923
H        0.8442736897    1.1650697243   -1.5286262802
H        0.9822213835    1.9470151688    0.1302583331
H       -1.4865627214    1.6633297182    0.4887900361
H       -1.6578717223    0.8606998690   -1.1521546546
H       -0.1302940483   -1.0986714499   -1.7470619465
H       -0.8217785815   -1.9961157738   -0.3899043354
H        0.9410745942   -1.8343741628   -0.5534822707
H        0.2253878875   -2.7078256540    3.5334249582
17   
torsion grid (-15,)
C       -0.0273738305   -0.0808902073    1.6234200445
C       -0.2784105640   -1.4434046035    2.2879097425
C        0.5199795098    1.2229768175   -0.4778309569
C       -0.9697470513    1.1517056207   -0.3822857516
C       -0.1225183092   -0.0174809099    0.1397624543
C       -0.1112977806   -1.3223836649   -0.6365293498
O        0.1500025823    0.8823266358    2.3531024729
O       -1.3502607952   -2.0107799728    2.2438426220
O        0.7996892216   -1.8993732857    2.9561952262
H        0.9888698796    1.0804152772   -1.4466951241
H        1.0351321455    1.8892387728    0.2063161834
H       -1.4593061560    1.7666749359    0.3656728852
H       -1.5486462451    0.9488417772   -1.2784540188
H       -0.1198785644   -1.1198151937   -1.7112970425
H       -0.9840853727   -1.9376411425   -0.4017535158
H        0.7913287792   -1.9058392514   -0.4217560664
H        0.5311343087   -2.7329864978    3.3927733522
17   
torsion grid (0,)
C       -0.2020908686   -0.0827119340    1.6346997251
C       -0.2292751024   -1.4742695347    2.2842351587
C        0.5859316680    1.1709199311   -0.4161960456
C       -0.9069988925    1.2051688847   -0.4349898143
C       -0.1996787731   -0.0202038003    0.1482624196
C       -0.2240087528   -1.3236478028   -0.6295666977
O       -0.2227214645    0.8898366374    2.3735085150
O       -1.2050537771   -2.1952219266    2.2702712038
O        0.9324788910   -1.7739287919    2.9001329480
H        1.1202441717    0.9851869061   -1.3431385580
H        1.0946377292    1.7995035647    0.3073751401
H       -1.4037692459    1.8566980309    0.2763228276
H       -1.4250585364    1.0475399730   -1.3762188459
H       -0.1669535562   -1.1210180126   -1.7028584025
H       -1.1415241349   -1.8861602273   -0.4372898353
H        0.6292138124   -1.9618761723   -0.3727234958
H        0.8092385898   -2.6442306177    3.3305669146
17   
torsion grid (15,)
C        0.7219880840    0.1703570946    1.4430621278
C        2.0449860643   -0.5631652576    1.7122029503
C       -0.2842630727    1.4174829635   -0.5222771656
C       -1.3197890098    0.4601852476   -0.0274659362
C        0.1538832977    0.0710691696    0.0713066985
C        0.7018274645   -0.9989143363   -0.8562753815
O        0.2612942915    0.8579127989    2.3412284328
O        3.0871365683   -0.2640459589    1.1671210985
O        1.9213567727   -1.5268374062    2.6465033710
H       -0.1352196129    1.5300873614   -1.5920895948
H       -0.0823770529    2.2992966627    0.0768509710
H       -1.8180890601    0.6988838511    0.9063790096
H       -1.9079803635   -0.0940763219   -0.7525252417
H        0.1488634703   -0.9967542656   -1.7999126424
H        0.5958158161   -1.9980397271   -0.4183388625
H        1.7582007524   -0.8318103741   -1.0834889487
H        2.8160441925   -1.8944561665    2.7949682278
17   
torsion grid (30,)
C        0.6184422691    0.0198347528    1.4776959928
C        2.0431376209   -0.5187907723    1.7010728197
C       -0.1798127167    1.4152599064   -0.4804170692
C       -1.3165485120    0.5217201898   -0.0839814223
C        0.1066673050    0.0142838991    0.0779499055
C        0.6196949477   -1.0642549893   -0.8608313976
O        0.0471652948    0.5288255107    2.4283722140
O        3.0020693983   -0.1266161975    1.0681657051
O        2.1076845519   -1.4149663946    2.7044823512
H        0.0428041966    1.5572064785   -1.5339696682
H        0.0521875925    2.2592072434    0.1611045473
H       -1.8524713675    0.7651181628    0.8273192092
H       -1.9040732422    0.0534115823   -0.8677328020
H        0.1268661020   -0.9785696382   -1.8335558743
H        0.4011244515   -2.0644059603   -0.4699372435
H        1.6976809168   -0.9807517956   -1.0223924412
H        3.0510597937   -1.6493366428    2.8139042873
17   
torsion grid (45,)
C        0.5427331364   -0.1183824858    1.4953959767
C        2.0376606857   -0.4442639095    1.6928970938
C       -0.0759287119    1.3970117086   -0.4409461008
C       -1.2979627322    0.5804331679   -0.1152404118
C        0.0703298940   -0.0342168452    0.0814183048
C        0.5340985913   -1.1315506870   -0.8620482375
O       -0.1151040885    0.1824791526    2.4761386795
O        2.9184670089    0.0758807876    1.0386882946
O        2.2502520471   -1.3143366931    2.6984513931
H        0.1991050699    1.5531746403   -1.4801218792
H        0.1917362157    2.2071165337    0.2300806828
H       -1.8548068005    0.8386812905    0.7792379106
H       -1.8898749242    0.1909624506   -0.9380267260
H        0.1307684856   -0.9587802605   -1.8641116247
H        0.1784725301   -2.1119929365   -0.5266966896
H        1.6244507232   -1.1627663026   -0.9444366378
H        3.2192814716   -1.4122742765    2.7865690853
17   
torsion grid (60,)
C        0.4985667554   -0.2833272286    1.4832317916
C        2.0292981035   -0.3999105709    1.6887273905
C        0.0249807940    1.3732035810   -0.3942437642
C       -1.2639242759    0.6331769834   -0.1177096793
C        0.0550763037   -0.0765177689    0.0674997832
C        0.4465707229   -1.1761454697   -0.9075192325
O       -0.2248625252   -0.2469058369    2.4602060222
O        2.8434482172    0.1063192545    0.9432667490
O        2.3473549286   -1.0835284495    2.8041994153
H        0.3240790045    1.5577714931   -1.4221448435
H        0.3346551083    2.1399247341    0.3097298372
H       -1.8197273103    0.8948381939    0.7765926020
H       -1.8715400640    0.3278930960   -0.9644609940
H        0.1041001060   -0.9213567520   -1.9149780447
H       -0.0181777912   -2.1275147380   -0.6270470789
H        1.5314222499   -1.3122934365   -0.9504218926
H        3.3223582748   -1.0684517500    2.8723210525
17   
torsion grid (75,)
C        0.4925432480   -0.4891034145    1.4338107699
C        2.0205667682   -0.4039635313    1.6935485880
C        0.1311214729    1.3397482049   -0.3295478435
C       -1.2105102287    0.6776910311   -0.0773325799
C        0.0595783377   -0.1263630469    0.0408633780
C        0.3558416836   -1.1918027914   -1.0056742374
O       -0.2559376412   -0.7967152841    2.3388491335
O        2.8407762184   -0.1763636187    0.8268670511
O        2.3294619748   -0.6090865492    2.9877799714
H        0.4252527337    1.5762599151   -1.3481594433
H        0.4938006101    2.0436293888    0.4151045724
H       -1.7387987462    0.9281933884    0.8372136317
H       -1.8518994794    0.4720716588   -0.9294322945
H        0.0156530390   -0.8504238149   -1.9883368377
H       -0.1730048691   -2.1214063318   -0.7698754293
H        1.4275529746   -1.3991251876   -1.0722997607
H        3.3016805060   -0.5360646816    3.0538704444
17   
torsion grid (90,)
C        0.5273122977   -0.6807544920    1.3637560022
C        2.0055905751   -0.4060474962    1.7117363407
C        0.2384519127    1.2921464203   -0.2729973226
C       -1.1394342341    0.7170774418    0.0052901889
C        0.0750718269   -0.1798779189    0.0176448464
C        0.2570376860   -1.2013842614   -1.0968183120
O       -0.1647085881   -1.3138441272    2.1352773338
O        2.9004082958   -0.4761464890    0.8936804204
O        2.1870989524   -0.1179283249    3.0149759085
H        0.4969543162    1.5761222706   -1.2890302185
H        0.6787465003    1.9273098825    0.4922981940
H       -1.6097202159    0.9568915733    0.9542134211
H       -1.8315683610    0.6036330447   -0.8242184845
H       -0.1172023044   -0.7923898754   -2.0407324389
H       -0.3024390823   -2.1157283584   -0.8748198711
H        1.3132453725   -1.4546037432   -1.2277883692
H        3.1488336523    0.0026997885    3.1447814747
17   
torsion grid (105,)
C        0.5910294443   -0.7999737771    1.2933035843
C        1.9888615044   -0.3558230058    1.7575371390
C        0.3345641758    1.2418099546   -0.2772294383
C       -1.0539847912    0.7510604295    0.0811612994
C        0.1030113542   -0.2245522868   -0.0093352231
C        0.1511081437   -1.2204439075   -1.1587525134
O        0.0031937079   -1.6556766431    1.9258997050
O        2.9679597925   -0.4511319166    1.0468028444
O        2.0054042046    0.0959803471    3.0270236314
H        0.5383939100    1.5367913689   -1.3023153360
H        0.8642878751    1.8303563825    0.4680760111
H       -1.4446353258    0.9985229329    1.0638773312
H       -1.8065261128    0.6930363275   -0.7001382592
H       -0.2672883721   -0.7689205576   -2.0638175974
H       -0.4319590540   -2.1142727408   -0.9177429702
H        1.1826352862   -1.5189616474   -1.3708831562
H        2.9376228594    0.2993740748    3.2437820619
17   
torsion grid (120,)
C        0.6806482219   -0.8965185523    1.2135989360
C        1.9694881880   -0.3031162699    1.8037726833
C        0.4180852412    1.1907100354   -0.2999596633
C       -0.9547737161    0.7698212914    0.1678140923
C        0.1382807727   -0.2713589716   -0.0393779244
C        0.0451553796   -1.2327752316   -1.2131196208
O        0.2352091676   -1.9132820658    1.7130393579
O        3.0342787894   -0.3725705573    1.2279841557
O        1.7910969874    0.2450972904    3.0234279312
H        0.5469976735    1.4897815652   -1.3357696045
H        1.0423128125    1.7384593714    0.4011299729
H       -1.2452014488    1.0169872460    1.1848204264
H       -1.7747451429    0.7576011679   -0.5445771392
H       -0.4400309431   -0.7447233391   -2.0640973019
H       -0.5379553580   -2.1176205891   -0.9432609839
H        1.0434633913   -1.5543009211   -1.5266404439
H        2.6713685861    0.5349838651    3.3384642401
17   
torsion grid (135,)
C        0.7944421536   -0.9774048506    1.1245106653
C        1.9486988913   -0.2575162612    1.8391866476
C        0.4875639620    1.1458899136   -0.3285214261
C       -0.8463376414    0.7767534400    0.2601219525
C        0.1762365864   -0.3149267846   -0.0652355057
C       -0.0572133221   -1.2396590942   -1.2466379598
O        0.5194116977   -2.1055066753    1.4940228483
O        3.0870749896   -0.2776950457    1.4254088734
O        1.5586952034    0.3528634277    2.9799820491
H        0.5301017224    1.4476805949   -1.3705450020
H        1.2022194380    1.6566094523    0.3102976863
H       -1.0272327640    1.0138403082    1.3043750236
H       -1.7299259636    0.8021372382   -0.3709704985
H       -0.5871275711   -0.7102853041   -2.0444386496
H       -0.6526190642   -2.1077322568   -0.9518263383
H        0.8971840334   -1.5957617451   -1.6470570041
H        2.3625062506    0.7278889776    3.3945757519
17   
torsion grid (150,)
C        0.9111554136   -1.0211483222    1.0368978183
C        1.9145698548   -0.2139393920    1.8782023611
C        0.5550257553    1.1155230476   -0.3803910852
C       -0.7334196866    0.7971811435    0.3168599994
C        0.2154665272   -0.3397184607   -0.0893988404
C       -0.1546977616   -1.2486147018   -1.2459307345
O        0.8105491038   -2.2119240391    1.2801042474
O        3.0905475163   -0.1305107381    1.6016608352
O        1.3450629966    0.3508737743    2.9681088852
H        0.5218447328    1.4054032882   -1.4260458379
H        1.3455961316    1.5952795582    0.1883399707
H       -0.8193303707    1.0370444224    1.3720019979
H       -1.6635947165    0.8492402912   -0.2410809562
H       -0.7079696941   -0.6901251623   -2.0070184754
H       -0.7753026772   -2.0823125727   -0.9074005355
H        0.7459824663   -1.6624724017   -1.7097219351
H        2.0621930107    0.7873956002    3.4720613990
17   
torsion grid (165,)
C        0.9967739480   -0.9820146688    0.9778947875
C        1.8371926487   -0.1206990893    1.9384934821
C        0.6210336038    1.1010311931   -0.5169813616
C       -0.6206685997    0.8716989100    0.2857083889
C        0.2489466122   -0.3277571227   -0.1237561132
C       -0.2418917943   -1.2731968680   -1.2021317163
O        1.0494372022   -2.1906933970    1.1417229259
O        2.9169733525    0.3482678273    1.6463999913
O        1.2667585143   -0.0098624195    3.1577932465
H        0.5148953112    1.3257247445   -1.5737805156
H        1.4771534234    1.5652365500   -0.0410390100
H       -0.6255597663    1.1655513188    1.3310892181
H       -1.5870931201    0.9332226280   -0.2053093249
H       -0.8181145225   -0.7260736602   -1.9543437036
H       -0.8771686822   -2.0568206960   -0.7804512388
H        0.6030513435   -1.7582773552   -1.6998608156
H        1.9019591275    0.4718374402    3.7258008732
17   
torsion grid (180,)
C        1.1008008454   -0.9479351851    0.9198011995
C        1.7521686463   -0.0562976262    1.9947501192
C        0.6651470115    1.0848691933   -0.6296548341
C       -0.5271271715    0.9243043417    0.2575647896
C        0.2808931115   -0.3174347567   -0.1418818679
C       -0.3073541745   -1.2937194588   -1.1411001087
O        1.3222953775   -2.1466599359    0.9867009308
O        2.6441130485    0.7385657443    1.7760322797
O        1.2546795817   -0.3123095177    3.2220785859
H        0.4986902382    1.2526164677   -1.6894072466
H        1.5585384470    1.5431161330   -0.2231564877
H       -0.4584501853    1.2750272025    1.2833027632
H       -1.5214607972    0.9919798192   -0.1731196062
H       -0.9206002298   -0.7628297900   -1.8753967210
H       -0.9326351212   -2.0387774505   -0.6407482886
H        0.4856517727   -1.8271818473   -1.6728330000
H        1.7683282016    0.2298420014    3.8543166068
