18   
torsion grid (-165,)
C       -2.1914105775    1.7908708879   -0.8392631093
C       -1.0185085839    1.1985741754   -1.6422939929
C        0.1279560643    2.2198067411   -1.7799923090
C       -0.5201822903   -0.0745020920   -1.0041707414
C       -0.4620041930   -1.3041341016   -1.5371086066
C       -0.8825744313   -1.7329336486   -2.9181715169
H       -3.0139919656    1.0732472537   -0.7555665032
H       -2.5731205753    2.6984726090   -1.3202437989
H       -1.8761689749    2.0586021752    0.1768357803
H       -1.3899534973    0.9779631115   -2.6485813616
H        0.8363470110    1.9135687628   -2.5563998842
H        0.6750274919    2.3342480051   -0.8371580090
H       -0.2628540511    3.2051298166   -2.0607287998
H       -0.1633807588    0.0457630003    0.0214613417
H       -0.0636074558   -2.1019199979   -0.9089366805
H       -0.0357134034   -2.1703711593   -3.4617299080
H       -1.2761973002   -0.9097285438   -3.5185631863
H       -1.6558027973   -2.5095599858   -2.8637335118
18   
torsion grid (-150,)
C       -2.2007371707    1.7737366421   -0.9380698003
C       -1.0253407746    1.1287511990   -1.6957673632
C        0.1494690382    2.1215769709   -1.8561442330
C       -0.5681160922   -0.1352999685   -1.0109825688
C       -0.5029232359   -1.3766205058   -1.5151055204
C       -0.8722906031   -1.8298837270   -2.9029477895
H       -3.0356475539    1.0729177462   -0.8349314805
H       -2.5602455936    2.6634709612   -1.4667236006
H       -1.8974999514    2.0837728249    0.0698119559
H       -1.3910132612    0.8811834845   -2.6975560979
H        0.7158369319    1.9188490515   -2.7705892209
H        0.8344516849    2.0814470699   -1.0026398295
H       -0.2213117357    3.1504299494   -1.9360196953
H       -0.2497243592    0.0041559975    0.0248276651
H       -0.1387043416   -2.1648703746   -0.8549747667
H       -0.0107776684   -2.2932310946   -3.3999333599
H       -1.2253136314   -1.0139463554   -3.5375799841
H       -1.6606191665   -2.5921921765   -2.8648196954
18   
torsion grid (-135,)
C       -2.2235807819    1.7337389783   -1.1323084896
C       -1.0267343884    1.0421773482   -1.8118962927
C        0.1655917058    2.0210641053   -1.9891857832
C       -0.6079695874   -0.1846930239   -1.0399454934
C       -0.5575258598   -1.4564939066   -1.4633878572
C       -0.9073279509   -1.9900086290   -2.8275693121
H       -3.0698509954    1.0465615204   -1.0291888114
H       -2.5522499885    2.6007030103   -1.7161818724
H       -1.9555169101    2.0883490518   -0.1292752273
H       -1.3626572283    0.7363547717   -2.8073736168
H        0.6006949475    1.9398066023   -2.9900767353
H        0.9565906082    1.8388844301   -1.2551461199
H       -0.1593500525    3.0612715975   -1.8720083003
H       -0.3089646281    0.0136409041   -0.0079382325
H       -0.2226653491   -2.2079054687   -0.7471181360
H       -0.0448852263   -2.4991014403   -3.2757937706
H       -1.2318720952   -1.2098655525   -3.5198052011
H       -1.7107167802   -2.7342082341   -2.7584876523
18   
torsion grid (-120,)
C       -2.2268080419    1.7179056924   -1.1352957478
C       -0.9985308895    1.0704443150   -1.8032243261
C        0.1778176902    2.0826992817   -1.9205333152
C       -0.5784843854   -0.1605349364   -1.0372891173
C       -0.5494574021   -1.4332006305   -1.4602260085
C       -0.9267908363   -1.9649458076   -2.8178233933
H       -3.0665382306    1.0167666884   -1.0887896811
H       -2.5493366344    2.6059296606   -1.6909715097
H       -1.9931172689    2.0313880332   -0.1105599603
H       -1.2975907257    0.7734421343   -2.8124079928
H        0.4683380498    2.2368436266   -2.9643846165
H        1.0656143248    1.7349590367   -1.3836185678
H       -0.0925012152    3.0613320535   -1.5094478260
H       -0.2640452771    0.0344204508   -0.0092677840
H       -0.2134471591   -2.1877102413   -0.7477625354
H       -0.0795880714   -2.4899920707   -3.2766102720
H       -1.2486705076   -1.1818847311   -3.5079959938
H       -1.7415749852   -2.6952220802   -2.7348491006
18   
torsion grid (-105,)
C       -2.2242406038    1.4096637075   -1.1569929661
C       -0.9577649961    0.8490132234   -1.8324824452
C        0.1474812788    1.9372081477   -1.9330027249
C       -0.4610004810   -0.3493810170   -1.0593960469
C       -0.3911931270   -1.6270776111   -1.4617063988
C       -0.7888432906   -2.1979104594   -2.7975389957
H       -3.0257110778    0.6640104062   -1.1380202234
H       -2.5914021420    2.2968495321   -1.6864925166
H       -2.0117424561    1.7024865758   -0.1219430659
H       -1.2270717630    0.5335408002   -2.8442659753
H        0.2418967463    2.3146457392   -2.9563379963
H        1.1274785651    1.5332181039   -1.6598492524
H       -0.0565483920    2.7855601658   -1.2714231028
H       -0.1259092803   -0.1232841041   -0.0443730427
H       -0.0021684926   -2.3543020229   -0.7478515607
H        0.0637018519   -2.6976942695   -3.2743230901
H       -1.1635117293   -1.4409440549   -3.4901750199
H       -1.5710066544   -2.9578938998   -2.6761775676
18   
torsion grid (-90,)
C       -2.2385725625    1.2296309960   -1.1863486699
C       -0.9470945781    0.7187717896   -1.8538306765
C        0.1184997672    1.8401714082   -1.9181733520
C       -0.4193479125   -0.4676935696   -1.0824469016
C       -0.3302861164   -1.7450691133   -1.4817738175
C       -0.7338512958   -2.3263460216   -2.8113290829
H       -3.0201419854    0.4631199874   -1.1979420387
H       -2.6216528977    2.1200440598   -1.6993217363
H       -2.0490599420    1.5017976143   -0.1414295259
H       -1.1846883048    0.4083424256   -2.8754314028
H        0.0324257401    2.4139422804   -2.8472355292
H        1.1292823546    1.4188763587   -1.9082628413
H        0.0346930031    2.5270116236   -1.0691713711
H       -0.0788892305   -0.2325241012   -0.0712529843
H        0.0797852641   -2.4632154199   -0.7705270281
H        0.1210682303   -2.8132040133   -3.2971565622
H       -1.1298286486   -1.5777260458   -3.5011814088
H       -1.5016503511   -3.0989710648   -2.6785009814
18   
torsion grid (-75,)
C       -2.2802987068    1.3153954124   -1.2513141557
C       -0.9866117271    0.7684820970   -1.8840519255
C        0.0857874092    1.8737020125   -1.9744785935
C       -0.4734166270   -0.3945893244   -1.0690379698
C       -0.3655030755   -1.6809947005   -1.4332237104
C       -0.7292570043   -2.2987480095   -2.7577804439
H       -3.0668845713    0.5541133953   -1.2389557638
H       -2.6520565947    2.1859822197   -1.8048019464
H       -2.1004170593    1.6297417401   -0.2164630162
H       -1.2138255527    0.4290489486   -2.8993714029
H       -0.1429510769    2.5765868999   -2.7835062472
H        1.0700209372    1.4445753474   -2.1903068446
H        0.1616758808    2.4328670613   -1.0349934558
H       -0.1609735826   -0.1315835779   -0.0556350580
H        0.0301010647   -2.3779912210   -0.6933055907
H        0.1440951014   -2.7830731734   -3.2124256962
H       -1.1201911058   -1.5723735627   -3.4737658140
H       -1.4879307105   -3.0802158197   -2.6245277158
18   
torsion grid (-60,)
C       -2.2786584763    1.3670867086   -1.3897984823
C       -0.9889198736    0.7383811119   -1.9493812998
C        0.1204984843    1.7978256937   -2.0854827334
C       -0.5293532742   -0.3914884449   -1.0602463115
C       -0.4068721796   -1.6920670320   -1.3648756437
C       -0.6973622843   -2.3637001182   -2.6812154580
H       -3.0829343118    0.6271291746   -1.3263552266
H       -2.6196424437    2.1931299269   -2.0246827989
H       -2.1111176809    1.7674131037   -0.3826036715
H       -1.2079085207    0.3491069006   -2.9490820042
H       -0.1873299124    2.6022186153   -2.7634612179
H        1.0413977701    1.3548627530   -2.4784228444
H        0.3529619786    2.2475559399   -1.1126631263
H       -0.2705446787   -0.0874793339   -0.0432236945
H       -0.0560691517   -2.3585672239   -0.5758774470
H        0.1984181605   -2.8686905670   -3.0640216363
H       -1.0425351391   -1.6668688330   -3.4482438134
H       -1.4660821789   -3.1371908933   -2.5594467823
18   
torsion grid (-45,)
C       -2.2764353441    1.4007074803   -1.3263166545
C       -1.0080740365    0.7443242775   -1.9019990350
C        0.1257202287    1.7772638689   -2.0548279238
C       -0.5603072881   -0.4078864982   -1.0370706218
C       -0.4104669447   -1.6959180281   -1.3804664500
C       -0.6531729907   -2.3272920279   -2.7260245190
H       -3.0891189853    0.6730897121   -1.2330379697
H       -2.6182318566    2.2184394293   -1.9707559267
H       -2.0848611451    1.8181389523   -0.3300362235
H       -1.2578617747    0.3712619757   -2.9009458600
H       -0.2453974162    2.7065522536   -2.5020674921
H        0.9423903275    1.3859689576   -2.6691703318
H        0.5432164521    2.0389824885   -1.0746309526
H       -0.3308973556   -0.1332516545   -0.0047693035
H       -0.0713882444   -2.3830563064   -0.6041604840
H        0.2629776796   -2.7997443626   -3.1021284819
H       -0.9931299166   -1.6112927570   -3.4775725536
H       -1.4076349295   -3.1204761968   -2.6510478489
18   
torsion grid (-30,)
C       -2.2822102083    1.3634497084   -1.4277671628
C       -1.0135704195    0.6641707423   -1.9500160601
C        0.1473985813    1.6708293899   -2.1216609914
C       -0.6071978624   -0.4707207432   -1.0432380312
C       -0.4517941221   -1.7666432918   -1.3526316428
C       -0.6449387326   -2.4254224171   -2.6930385097
H       -3.1065857215    0.6518544878   -1.3145815987
H       -2.6003380518    2.1533320236   -2.1171153692
H       -2.1028887043    1.8261441733   -0.4491143804
H       -1.2575271600    0.2623529306   -2.9389719540
H       -0.2257613098    2.6725265579   -2.3625174119
H        0.8511974485    1.3490965803   -2.8947573003
H        0.7114307180    1.7702711385   -1.1862638801
H       -0.4153080486   -0.1739077289   -0.0094087932
H       -0.1472405928   -2.4384139320   -0.5490547918
H        0.2790717544   -2.9208652331   -3.0164546198
H       -0.9383313192   -1.7215869156   -3.4751146710
H       -1.4154470091   -3.2045025103   -2.6346474102
18   
torsion grid (-15,)
C       -2.2855073970    1.2873878725   -1.6226251207
C       -0.9990054697    0.5587206643   -2.0543741469
C        0.1756642023    1.5553170715   -2.2477607172
C       -0.6351580977   -0.5201021645   -1.0644818104
C       -0.4997434795   -1.8367889327   -1.2819828457
C       -0.6759053390   -2.5812984444   -2.5791566369
H       -3.1174077775    0.5847142487   -1.5080418202
H       -2.5703535206    2.0416635334   -2.3645239230
H       -2.1446706208    1.7992266875   -0.6624167942
H       -1.2105796612    0.0940446423   -3.0223666294
H       -0.1796713225    2.5899973154   -2.3025633372
H        0.7549503685    1.3302756275   -3.1477794323
H        0.8677579355    1.5126305838   -1.3991653740
H       -0.4617886968   -0.1579490125   -0.0483403267
H       -0.2268743013   -2.4580323790   -0.4279358345
H        0.2464056285   -3.1111052438   -2.8484687307
H       -0.9415994712   -1.9275642754   -3.4129230371
H       -1.4601397730   -3.3430373353   -2.4855275582
18   
torsion grid (0,)
C       -2.2857896870    1.2677904964   -1.6305708358
C       -0.9680465525    0.5871124252   -2.0481761502
C        0.1838402204    1.6249017501   -2.1828357090
C       -0.6072017433   -0.4970875388   -1.0619650556
C       -0.4968087361   -1.8160474831   -1.2800431584
C       -0.7012710996   -2.5593922494   -2.5738150913
H       -3.1042361815    0.5426438194   -1.5740239240
H       -2.5651982817    2.0481139435   -2.3477922310
H       -2.1856609731    1.7394963406   -0.6454558254
H       -1.1356551600    0.1314650900   -3.0281976304
H       -0.1598881153    2.6397125219   -1.9557738185
H        0.5987169825    1.6329720750   -3.1954267766
H        1.0083010971    1.4006546149   -1.4988216096
H       -0.4189601839   -0.1382254261   -0.0473322671
H       -0.2262270919   -2.4411816052   -0.4281124637
H        0.2042616082   -3.1151327826   -2.8477131348
H       -0.9554492775   -1.9015135907   -3.4079080787
H       -1.5054552548   -3.2990676209   -2.4724245142
18   
torsion grid (15,)
C       -2.2879799801    1.2226137284   -1.6846253669
C       -0.9468242732    0.5720946831   -2.0746476813
C        0.1789429653    1.6384841245   -2.1796136642
C       -0.5860989516   -0.4885380418   -1.0616864495
C       -0.4867581463   -1.8134759212   -1.2457460201
C       -0.7066029770   -2.5878642042   -2.5187052747
H       -3.0956665265    0.4836681035   -1.6674364340
H       -2.5606882814    2.0145118621   -2.3923839815
H       -2.2222110797    1.6736797524   -0.6874649740
H       -1.0717194453    0.1013219838   -3.0536671073
H       -0.1192959301    2.5820691251   -1.7097401245
H        0.4005889532    1.8694572444   -3.2271940921
H        1.1097171278    1.2993033365   -1.7163857525
H       -0.3909560907   -0.1047115687   -0.0575543993
H       -0.2154338289   -2.4186413475   -0.3797535225
H        0.1935600931   -3.1547201638   -2.7876239976
H       -0.9663785413   -1.9498149205   -3.3663749781
H       -1.5132080865   -3.3208133877   -2.3912039256
18   
torsion grid (30,)
C       -2.1329666214    1.2066628922   -0.8220060900
C       -0.9981015068    0.8233999817   -1.7908256250
C       -0.0023511869    1.9966574971   -1.9590935942
C       -0.2862901886   -0.4028734127   -1.2697232228
C       -0.2489310623   -1.6321026786   -1.8051924235
C       -0.9098695288   -2.1068145458   -3.0725978695
H       -2.8814706901    0.4105855355   -0.7552435185
H       -2.6357409098    2.1255227640   -1.1472324453
H       -1.7359344754    1.3813231258    0.1847746495
H       -1.4366672685    0.5975349476   -2.7671343209
H        0.0449123176    2.6078064085   -1.0505071639
H       -0.3339920920    2.6680913807   -2.7597638630
H        1.0038517526    1.6498252682   -2.2102627950
H        0.2545083700   -0.2460251242   -0.3334192072
H        0.3221993444   -2.3924607672   -1.2709230630
H       -0.1658123329   -2.5130812360   -3.7691604184
H       -1.4567802706   -1.3155198044   -3.5901641045
H       -1.6168812442   -2.9185238068   -2.8594193693
18   
torsion grid (45,)
C       -2.1563866906    1.3937116018   -0.8381402504
C       -1.0214444114    0.9424171423   -1.7766370073
C        0.0145319387    2.0707971486   -1.9579153680
C       -0.3586762669   -0.2939836165   -1.2177224463
C       -0.3346564626   -1.5307059684   -1.7365251355
C       -0.9655008769   -2.0055716352   -3.0190662304
H       -2.9280303534    0.6220023643   -0.7523482659
H       -2.6282639758    2.3133443508   -1.2043688726
H       -1.7686073854    1.5947885703    0.1674646880
H       -1.4524754217    0.7125467812   -2.7560267788
H        0.2611696042    2.5327810794   -0.9944995138
H       -0.3931102813    2.8670053287   -2.5921403197
H        0.9358693139    1.7052687352   -2.4209149819
H        0.1562670579   -0.1383041670   -0.2667450228
H        0.2003231794   -2.2976370274   -1.1749179932
H       -0.2066728650   -2.4226214189   -3.6930551792
H       -1.4901278457   -1.2116924118   -3.5553589482
H       -1.6857175388   -2.8094165796   -2.8211539711
18   
torsion grid (60,)
C       -2.1479688994    1.4612618086   -0.8250430282
C       -1.0244536751    0.9624119932   -1.7527428044
C        0.0411586910    2.0554548324   -1.9559969830
C       -0.3939977056   -0.2866938989   -1.1865191494
C       -0.3613747073   -1.5168710071   -1.7202948141
C       -0.9481646450   -1.9708555594   -3.0309426659
H       -2.9276783057    0.7020639391   -0.7063956107
H       -2.6108885249    2.3712430704   -1.2241852004
H       -1.7544603421    1.6962814435    0.1713060054
H       -1.4666484828    0.7367558299   -2.7286953646
H        0.4917104780    2.3429670170   -0.9982533990
H       -0.4023399240    2.9559429601   -2.3965648975
H        0.8429824637    1.7090172958   -2.6157814163
H        0.0898785079   -0.1470879387   -0.2169267077
H        0.1473028274   -2.2950944944   -1.1498391995
H       -0.1675463120   -2.3840348672   -3.6820287036
H       -1.4475751561   -1.1665775786   -3.5757136753
H       -1.6798297182   -2.7726194866   -2.8700912611
18   
torsion grid (75,)
C       -2.1714793100    1.4895539600   -0.8803182374
C       -1.0516765414    0.9275985253   -1.7757217786
C        0.0350543931    1.9900098730   -2.0335717376
C       -0.4451215168   -0.3102939900   -1.1629081416
C       -0.3750462895   -1.5454739047   -1.6813704446
C       -0.8878288874   -2.0170454252   -3.0165509534
H       -2.9537403915    0.7424559572   -0.7112714913
H       -2.6310452145    2.3718402512   -1.3398748914
H       -1.7779032118    1.7897173593    0.0987024265
H       -1.5025737549    0.6707920988   -2.7401251795
H        0.6660725667    2.1285893954   -1.1475647570
H       -0.4061255348    2.9566759661   -2.3005430305
H        0.6963364115    1.6768989320   -2.8485368437
H       -0.0106189953   -0.1558166634   -0.1724370082
H        0.1096782738   -2.3134562484   -1.0771988503
H       -0.0690619784   -2.4241802316   -3.6230609131
H       -1.3683819123   -1.2233502977   -3.5928930364
H       -1.6160819491   -2.8275443278   -2.8872989002
18   
torsion grid (90,)
C       -2.1668945991    1.4351648277   -0.8658259597
C       -1.0530910581    0.8648244049   -1.7637422575
C        0.0565718546    1.9124145985   -2.0132325950
C       -0.4729612507   -0.3960411360   -1.1735705025
C       -0.4082025266   -1.6175879451   -1.7240432625
C       -0.9014439224   -2.0461378248   -3.0808751468
H       -2.9576849739    0.6961212362   -0.7004569911
H       -2.6155935003    2.3236887429   -1.3236588594
H       -1.7717709592    1.7280293590    0.1149504620
H       -1.5133717306    0.6301664817   -2.7290413945
H        0.8395550976    1.8504314755   -1.2489715793
H       -0.3417176983    2.9322461069   -2.0320116431
H        0.5533459240    1.7233248841   -2.9710813976
H       -0.0536205269   -0.2728849060   -0.1722386879
H        0.0562734388   -2.4074901213   -1.1323725459
H       -0.0777855798   -2.4544035368   -3.6798678417
H       -1.3537482928   -1.2289715414   -3.6472354695
H       -1.6480065317   -2.8448409969   -2.9873826769
18   
torsion grid (105,)
C       -2.1658743923    1.4916616798   -0.8007837278
C       -1.0370283170    0.9659315630   -1.7077712897
C        0.0542094473    2.0467294785   -1.9345612885
C       -0.4362444215   -0.2958966550   -1.1401064189
C       -0.3761445210   -1.5129646239   -1.7010005087
C       -0.8942572519   -1.9349586687   -3.0506309238
H       -2.9432578432    0.7337456986   -0.6586903496
H       -2.6292012623    2.3833798256   -1.2375780758
H       -1.7800519780    1.7661088463    0.1888924419
H       -1.4918767949    0.7375493581   -2.6764202656
H        0.9567290046    1.8332256076   -1.3522615789
H       -0.3006463968    3.0492370998   -1.6747472769
H        0.3693348697    2.0647681569   -2.9832383082
H        0.0017977209   -0.1782033436   -0.1461456082
H        0.1044518805   -2.3044424982   -1.1244901591
H       -0.0814795634   -2.3384760746   -3.6674211767
H       -1.3589387809   -1.1157091368   -3.6038220189
H       -1.6376405019   -2.7354337237   -2.9473253390
18   
torsion grid (120,)
C       -2.1484232181    1.5399323363   -0.6836492004
C       -1.0011786777    1.0969028253   -1.6118818130
C        0.0623382729    2.2222213708   -1.7693167888
C       -0.3721111179   -0.1729988454   -1.0924555232
C       -0.3154975543   -1.3752696560   -1.6847095340
C       -0.8650563041   -1.7697233454   -3.0302952624
H       -2.9154245556    0.7624870004   -0.6049267942
H       -2.6217214173    2.4545413465   -1.0589462038
H       -1.7746252979    1.7472247632    0.3264413095
H       -1.4384970066    0.8982280099   -2.5944154667
H        1.0483073294    1.8959055724   -1.4243184932
H       -0.2093560206    3.1176681596   -1.2004392336
H        0.1739072237    2.5189425612   -2.8169730840
H        0.0880800909   -0.0767012678   -0.1062280324
H        0.1865727166   -2.1760078378   -1.1401635687
H       -0.0663908081   -2.1557558069   -3.6760352319
H       -1.3472159782   -0.9409028706   -3.5534666364
H       -1.6024294096   -2.5756858905   -2.9263326649
18   
torsion grid (135,)
C       -2.1662079713    1.5117325612   -0.7507127460
C       -0.9870997600    1.0953944847   -1.6510771468
C        0.0576349422    2.2404391667   -1.7657595075
C       -0.3490391823   -0.1579783504   -1.1007953211
C       -0.2990444506   -1.3778094640   -1.6563865368
C       -0.8654981444   -1.8125905304   -2.9824546679
H       -2.9320427027    0.7300850898   -0.7153886421
H       -2.6322343183    2.4345632603   -1.1160907021
H       -1.8228697228    1.6940333057    0.2745060229
H       -1.3826236252    0.8847197635   -2.6486357176
H        1.0796963017    1.8672142533   -1.6510804494
H       -0.0936066010    2.9893952885   -0.9799263415
H       -0.0125805994    2.7570322767   -2.7278751406
H        0.1197191307   -0.0323411076   -0.1219057377
H        0.2090996144   -2.1619031302   -1.0935650664
H       -0.0747389355   -2.2144348625   -3.6283369088
H       -1.3585860917   -1.0009360328   -3.5220787379
H       -1.5983449557   -2.6176203485   -2.8448371054
18   
torsion grid (150,)
C       -2.1717611568    1.5911911685   -0.7656868766
C       -0.9844865443    1.1535303658   -1.6445932200
C        0.0884798811    2.2674729438   -1.7123971962
C       -0.3889313000   -0.1174165863   -1.0864044577
C       -0.3701795500   -1.3391593817   -1.6395665821
C       -0.9393877183   -1.7588724656   -2.9693069448
H       -2.9663744771    0.8381301135   -0.7706461908
H       -2.5943733901    2.5400416688   -1.1176053464
H       -1.8490316669    1.7339756966    0.2722265143
H       -1.3540306847    0.9639060539   -2.6566730005
H        1.0920386188    1.8516441063   -1.8441930885
H        0.1104076295    2.8346109131   -0.7736593102
H       -0.1147928630    2.9774219780   -2.5203615581
H        0.0738449590   -0.0040142522   -0.1031331928
H        0.1096505460   -2.1371581427   -1.0714636148
H       -0.1561092569   -2.1839250227   -3.6094443885
H       -1.4054127177   -0.9339359300   -3.5128081055
H       -1.6959130893   -2.5424459029   -2.8360592570
18   
torsion grid (165,)
C       -2.1894109077    1.7090803106   -0.7810621850
C       -1.0029751978    1.2240521228   -1.6353406833
C        0.0917461020    2.3079759342   -1.7122003559
C       -0.4388620412   -0.0479477307   -1.0488056672
C       -0.4185392560   -1.2750951709   -1.5899080342
C       -0.9549325209   -1.7014741629   -2.9310967594
H       -2.9972293850    0.9703484660   -0.7711834476
H       -2.5916376645    2.6539921841   -1.1655719102
H       -1.8748875895    1.8775006959    0.2556562064
H       -1.3642853382    1.0275283714   -2.6496635366
H        1.0357289416    1.8951884670   -2.0817566913
H        0.2935011684    2.7175302582   -0.7144339792
H       -0.2131955049    3.1396142853   -2.3564440517
H       -0.0015356105    0.0698179793   -0.0544657601
H        0.0361974136   -2.0728596307   -1.0011965865
H       -0.1577703603   -2.1372513452   -3.5464252602
H       -1.3999606803   -0.8776562315   -3.4935237248
H       -1.7203023500   -2.4787000863   -2.8120434278
18   
torsion grid (180,)
C       -2.2020715263    1.7822582196   -0.9051062579
C       -1.0137421891    1.2027067308   -1.6948854979
C        0.1149665748    2.2424244997   -1.8243259603
C       -0.5004289761   -0.0487105020   -1.0251281876
C       -0.4574475077   -1.2964386495   -1.5156954700
C       -0.9129705447   -1.7727973024   -2.8698658331
H       -3.0237300615    1.0614895981   -0.8433721458
H       -2.5798422767    2.6955699384   -1.3792249649
H       -1.9019533703    2.0370943484    0.1185081322
H       -1.3646918177    0.9583855744   -2.7029145181
H        0.9631029411    1.8365188802   -2.3849907579
H        0.4823767827    2.5420668277   -0.8352181174
H       -0.2391439118    3.1447017917   -2.3360005134
H       -0.1212712547    0.1058447721   -0.0121633682
H       -0.0460733803   -2.0728385034   -0.8693344085
H       -0.0815356043   -2.2339878533   -3.4176124100
H       -1.3181088550   -0.9700924866   -3.4899998072
H       -1.6878625495   -2.5430376243   -2.7684340098
