18   
torsion grid (-165,)
C       -1.7890230737    2.9192054648    2.0750727732
C       -0.7535576354    4.0246096675    2.2239374453
C       -0.6295742671    3.0107890746    1.1175188047
C        0.5203330404    1.3696727300   -1.5399103352
N        1.6407082961    3.6505263488   -0.9500053297
N       -0.9167536276    3.4073978002   -0.2508400682
O       -0.4096186479    3.5862309790   -2.6816629055
S        0.2722395660    3.1536866387   -1.4451232347
H       -1.7977519735    2.1028600961    2.7908595173
H       -2.7702629613    3.2087853319    1.7082900469
H       -1.0540846708    5.0250105485    1.9294316581
H       -0.0486618557    3.9724395997    3.0482488996
H        0.1529245356    2.2648287571    1.2318425351
H       -0.4315635845    0.9202902830   -1.8255317980
H        1.2712132243    1.1991207035   -2.3120416144
H        0.8725919849    0.9895412386   -0.5814902782
H        1.6521128640    4.6704185887   -0.8801488366
H       -1.8259699461    3.1082290886   -0.5992962817
18   
torsion grid (-150,)
C       -0.2906616694    2.6431770641    2.5309400170
C       -1.7783853153    2.4498012911    2.2796801155
C       -0.8803173213    2.9524225851    1.1776457556
C        1.2080736675    3.0980229694   -1.7102013609
N       -1.1503538538    4.2072525200   -1.6075528302
N       -0.5761434029    2.0781156321    0.0511731191
O       -0.9703809172    1.6604831246   -2.3864941809
S       -0.5478532029    2.7877060603   -1.5252115703
H        0.0289379711    3.4699229770    3.1593247573
H        0.3195161945    1.7478103715    2.6040424937
H       -2.1383055552    1.4260200644    2.2088572284
H       -2.4849189143    3.1421880518    2.7280478228
H       -0.9809242333    3.9952328761    0.8905303515
H        1.7118616332    2.1351496481   -1.6326906951
H        1.3549398120    3.5501314781   -2.6913981840
H        1.5297195992    3.7762127363   -0.9198953369
H       -2.1723372697    4.1656710660   -1.6281121322
H       -1.1925315000    1.2697370210   -0.0200862757
18   
torsion grid (-135,)
C       -0.2210264676    2.7395295554    2.4194532056
C       -1.6894145656    2.3720146542    2.3389391840
C       -0.9919434439    2.9631330684    1.1386160523
C        1.2135747239    3.0428216264   -1.5724374984
N       -1.0912166600    4.2679332708   -1.6428383455
N       -0.7464788848    2.0738803782    0.0101030196
O       -0.9834751374    1.7359019687   -2.4610452856
S       -0.5645261110    2.8188929288   -1.5438655433
H        0.0666696451    3.6071473274    3.0067321746
H        0.4947274993    1.9231909813    2.4156587775
H       -1.9327291571    1.3130417830    2.3078996068
H       -2.4163655783    2.9863039128    2.8616853149
H       -1.2460870225    3.9838569631    0.8633915194
H        1.6612776259    2.0532014028   -1.4879249661
H        1.4648912792    3.5190842278   -2.5202883359
H        1.4984535871    3.6779679020   -0.7334774346
H       -2.1054404541    4.2746032003   -1.7762435446
H       -1.4839457123    1.3805150683   -0.1168573356
18   
torsion grid (-120,)
C       -0.1698075800    2.8343010875    2.2824937348
C       -1.5810217846    2.2948482394    2.3676147944
C       -1.1056632349    2.9638290263    1.1007613553
C        1.2202727316    3.0016751455   -1.4354130446
N       -1.0130059087    4.3436723518   -1.6435475805
N       -0.8925443947    2.0854769845   -0.0376887736
O       -0.9687511995    1.8375335689   -2.5336262317
S       -0.5632197630    2.8682707454   -1.5527795810
H        0.0778497519    3.7327955031    2.8403975264
H        0.6325338918    2.1094789494    2.1854389354
H       -1.7019899170    1.2155034955    2.3479006890
H       -2.3087222128    2.8235418458    2.9756648420
H       -1.5007116391    3.9509553806    0.8701371583
H        1.6115096629    1.9883127619   -1.3518117767
H        1.5682387471    3.4942719603   -2.3434661152
H        1.4669192133    3.5952419673   -0.5549512791
H       -2.0085832495    4.4032470905   -1.8707146628
H       -1.6950135939    1.4815778242   -0.2228239979
18   
torsion grid (-105,)
C       -0.1704189172    2.9406483498    2.1431129132
C       -1.4814188011    2.2317545887    2.3989311895
C       -1.2419023315    2.9197609686    1.0753665219
C        1.1993293316    2.8581622912   -1.3271500813
N       -0.9429523817    4.3191512959   -1.6447382928
N       -1.0401425394    2.0447511413   -0.0608717467
O       -0.9798439551    1.8209819218   -2.5591407384
S       -0.5793815917    2.8209958367   -1.5443489890
H        0.0213235185    3.8816722616    2.6497535250
H        0.7011724888    2.3171388610    1.9701830448
H       -1.4660165269    1.1462193922    2.4027583579
H       -2.1972444821    2.6839845330    3.0783988612
H       -1.7751642718    3.8496464674    0.8868034781
H        1.5309481476    1.8260060360   -1.2193942974
H        1.6201318541    3.3240146856   -2.2184272289
H        1.4302292299    3.4464631224   -0.4394222206
H       -1.9207629628    4.4352777584   -1.9214665674
H       -1.8635507199    1.4841142711   -0.2863219082
18   
torsion grid (-90,)
C       -0.2358638028    3.0744372342    2.0075012197
C       -1.3858142648    2.1652045747    2.3842288791
C       -1.3827273677    2.8683541596    1.0466504507
C        1.1931562678    2.7490828127   -1.3057697080
N       -0.8227639761    4.3854409970   -1.5644257448
N       -1.1474826017    2.0482171620   -0.1182245549
O       -1.0229002895    1.9459895019   -2.6187401262
S       -0.5801190372    2.8609210031   -1.5418377256
H       -0.1526306253    4.0436328156    2.4886071155
H        0.7062352807    2.5935161006    1.7656575927
H       -1.1960430353    1.0967185313    2.3803433955
H       -2.1002701811    2.5057663745    3.1274155937
H       -2.0660706063    3.7078858088    0.9267640359
H        1.4373233479    1.6945000962   -1.1830386006
H        1.6549417237    3.1638471851   -2.2023020562
H        1.4693884864    3.3319571328   -0.4283348097
H       -1.7862114706    4.5948256929   -1.8363562925
H       -1.9510999356    1.4871249084   -0.4021886982
18   
torsion grid (-75,)
C       -0.4069524837    3.2792373610    1.9422489863
C       -1.3009055481    2.1466472613    2.3973274016
C       -1.5291478497    2.8070919859    1.0540136499
C        1.2134189024    2.5818693441   -1.3106078324
N       -0.6101455576    4.4452825468   -1.3739115558
N       -1.1968458871    2.0560966530   -0.1303464067
O       -1.0741339571    2.1319227890   -2.6314661766
S       -0.5406892177    2.9091673012   -1.4879474879
H       -0.5146121479    4.2572150351    2.3989106416
H        0.6055700956    3.0205896376    1.6532720320
H       -0.8834096636    1.1451899997    2.3821815454
H       -2.0309915495    2.3341851248    3.1788641972
H       -2.3854354720    3.4774293134    0.9820500208
H        1.3370403029    1.5003599903   -1.2656893551
H        1.7004430844    3.0002599298   -2.1921946710
H        1.5781477597    3.0662387499   -0.4064650639
H       -1.5564731162    4.7835531944   -1.5631305783
H       -1.9421723403    1.4547828620   -0.4787757433
18   
torsion grid (-60,)
C       -0.5592041599    3.4439682741    1.8957713202
C       -1.1797022653    2.1594769828    2.3979031358
C       -1.6040437979    2.7456142625    1.0651132954
C        1.2620644065    2.4492388234   -1.2741677583
N       -0.3711332509    4.4804571306   -1.1890066030
N       -1.2019237340    2.0793632097   -0.1472100832
O       -1.0313484132    2.3258142081   -2.6353892001
S       -0.4507089937    2.9610008652   -1.4287776810
H       -0.8426778035    4.3856265583    2.3533338255
H        0.4674409156    3.4082359481    1.5516242654
H       -0.5719249186    1.2613750738    2.3563422614
H       -1.8918857465    2.2021159023    3.2167159414
H       -2.5804897580    3.2292180123    1.0395753990
H        1.2789455988    1.3616836358   -1.3393240624
H        1.8048781067    2.9029612061   -2.1041574534
H        1.6572664521    2.7957835536   -0.3204935636
H       -1.2842951994    4.9211661356   -1.3204868989
H       -1.8984685787    1.4594038755   -0.5548051362
18   
torsion grid (-45,)
C       -0.6356011034    3.5170887111    1.8420835192
C       -1.0543206415    2.1549754469    2.3519951130
C       -1.6551555219    2.7136635056    1.0761202925
C        1.2112965314    2.3584080264   -1.2383945216
N       -0.3090950019    4.4736348457   -1.1870611676
N       -1.3112065382    2.1345996848   -0.1962438817
O       -1.0415959828    2.3597258205   -2.6607907699
S       -0.4682307020    2.9624364806   -1.4351168112
H       -0.9960228604    4.4047535045    2.3512760564
H        0.3554379078    3.6267493637    1.4202076296
H       -0.3486289052    1.3392140306    2.2300475953
H       -1.6923762276    2.0905753265    3.2286623657
H       -2.6777897093    3.0827569795    1.1459429130
H        1.1732529075    1.2734398856   -1.3331632014
H        1.8060655433    2.8019359213   -2.0377425807
H        1.5935029424    2.6573280353   -0.2632086753
H       -1.1984448754    4.9616628134   -1.3146737919
H       -1.9862673914    1.4948373488   -0.6047838124
18   
torsion grid (-30,)
C       -0.6003096085    3.5424104386    1.7884890704
C       -0.9011271357    2.1213769539    2.2102008781
C       -1.6385219158    2.7475481883    1.0386031417
C        1.2057568821    2.3929131640   -1.2292799098
N       -0.2781319172    4.5334861006   -1.2762234001
N       -1.4053486828    2.2972510320   -0.3053843160
O       -0.9775078653    2.3930072147   -2.7356532847
S       -0.4583993250    3.0225305697   -1.5014805072
H       -0.9670878368    4.3585937574    2.4024373378
H        0.3414596177    3.7558686243    1.2995743076
H       -0.1646064982    1.3621361987    1.9644981893
H       -1.4547524819    1.9475306035    3.1284384403
H       -2.6689512011    3.0466870913    1.2231553027
H        1.1507113818    1.3057177957   -1.2895433355
H        1.8348991025    2.7928332478   -2.0254529268
H        1.5683982358    2.7188231792   -0.2552003932
H       -1.1562899467    5.0324078268   -1.4349064844
H       -1.8966393507    1.4758155500   -0.6420998811
18   
torsion grid (-15,)
C       -0.6261008749    3.5825174991    1.7969505929
C       -0.8242232616    2.1240823460    2.1488110775
C       -1.6682490647    2.7756114188    1.0661298713
C        1.1565655105    2.3528240109   -1.0990737562
N       -0.2388290896    4.5494874987   -1.2672394422
N       -1.5341384036    2.4098031141   -0.3219096472
O       -0.9412709423    2.4036157625   -2.7154208555
S       -0.4673274018    3.0428685168   -1.4696595257
H       -0.9988462960    4.3344495392    2.4852484806
H        0.2663929833    3.8867114839    1.2656453964
H       -0.0641562015    1.4229949329    1.8156755444
H       -1.3021917610    1.8677859791    3.0899787403
H       -2.6981490352    3.0051422193    1.3306037299
H        1.0633198556    1.2672590270   -1.1459490673
H        1.8395359649    2.7118375638   -1.8700377076
H        1.4865502643    2.6820041349   -0.1146058242
H       -1.0891051741    5.0769168744   -1.4766685414
H       -1.8945042053    1.5016757206   -0.6008157030
18   
torsion grid (0,)
C       -0.6674975509    3.6300957428    1.8141609968
C       -0.7307828643    2.1441014215    2.1111353005
C       -1.6769946072    2.7698860548    1.1015967514
C        1.1111683712    2.2791997337   -0.9938868472
N       -0.1675146286    4.5359737680   -1.2472976371
N       -1.6210454574    2.4891660589   -0.3164221059
O       -0.9306281726    2.4035622151   -2.6803759889
S       -0.4655268287    3.0391688114   -1.4298177682
H       -1.0599082343    4.3195928149    2.5551127685
H        0.1689381365    4.0248249844    1.2508662442
H        0.0686702313    1.5216051535    1.7199081749
H       -1.1381993094    1.8127304509    3.0620991977
H       -2.7056805234    2.9013068553    1.4283747813
H        0.9640431628    1.1985525206   -0.9965611394
H        1.8228250671    2.5688003498   -1.7681998288
H        1.4434855477    2.6369825527   -0.0204024644
H       -0.9836864907    5.1006480910   -1.4924237874
H       -1.9735000492    1.5766919985   -0.5960084931
18   
torsion grid (15,)
C       -0.7597155700    3.6717131438    1.8096129251
C       -0.6474042265    2.1720125930    2.0450150155
C       -1.6802070145    2.7296985276    1.0851375674
C        1.0809431713    2.2276184444   -0.9877447772
N       -0.1010439965    4.5317854944   -1.2443538190
N       -1.6726383092    2.5517889218   -0.3546430677
O       -0.9333428675    2.4446394320   -2.7026473220
S       -0.4600682653    3.0496721059   -1.4397644053
H       -1.1992845474    4.2840658308    2.5909370761
H        0.0171320752    4.1675544659    1.2392460947
H        0.2142634558    1.6605735133    1.6287635387
H       -1.0000546880    1.7608361162    2.9867914331
H       -2.7064465392    2.7241317527    1.4439371211
H        0.8813303570    1.1573458881   -0.9236654334
H        1.7855310915    2.4349446198   -1.7943781090
H        1.4544307422    2.6283966524   -0.0468122279
H       -0.8891402771    5.1309652461   -1.4995016490
H       -2.0491449155    1.6578941357   -0.6646695379
18   
torsion grid (30,)
C       -1.3277710920    3.8623573199    1.8560134584
C       -0.3821262143    2.6897424361    2.0599396861
C       -1.5665554344    2.5460438829    1.1423693475
C        1.0322569628    1.8618818326   -1.3122847738
N        0.3334730053    4.3304345923   -0.8131125881
N       -1.4339849170    2.2450927225   -0.2795774229
O       -1.0390097985    2.9619077162   -2.6319984230
S       -0.3233258047    3.0360376698   -1.3386015767
H       -2.0202511413    4.1238472753    2.6517555400
H       -0.9264573407    4.6968084128    1.2958864558
H        0.5985941588    2.8108286120    1.6119790695
H       -0.3895851576    2.1482372642    3.0013421607
H       -2.3800315249    1.9448251639    1.5394011926
H        0.6336951024    0.9096724534   -1.6605584741
H        1.7994394350    2.2469203842   -1.9845664518
H        1.4150795743    1.7768850873   -0.2961723303
H       -0.2953766753    5.1262395824   -0.9426184391
H       -2.3322738425    2.2889448866   -0.7603023799
18   
torsion grid (45,)
C       -1.4283599538    3.8313097997    1.8677771789
C       -0.3257848542    2.7939329891    2.0011332704
C       -1.5256515018    2.5100478943    1.1339481696
C        1.0055014403    1.7892804126   -1.2892379897
N        0.4411771680    4.2864158274   -0.7661566410
N       -1.4507926912    2.2982799060   -0.3055533193
O       -0.9745302645    3.0350365089   -2.6324423657
S       -0.2789182851    3.0402660497   -1.3264732319
H       -2.1066516561    3.9953279375    2.7006714748
H       -1.1743474946    4.7166888015    1.2965478109
H        0.6108240633    3.0577439263    1.5235434027
H       -0.2322814265    2.2331991314    2.9264191398
H       -2.2258197340    1.7923479577    1.5537768260
H        0.5659697858    0.8730710384   -1.6819841715
H        1.8192441673    2.1482755766   -1.9197521602
H        1.3420732862    1.6520478335   -0.2621661592
H       -0.1391295366    5.1193592785   -0.8873697983
H       -2.3492212137    2.4357486093   -0.7680578159
18   
torsion grid (60,)
C       -1.5148661717    3.7821454796    1.9111185441
C       -0.2915860679    2.8846300683    1.9682443564
C       -1.4826111856    2.4860714464    1.1296131604
C        0.9703664230    1.7353539739   -1.2516623754
N        0.5296847077    4.2633817277   -0.7695063962
N       -1.4690531574    2.3854108070   -0.3206315836
O       -0.9265768289    3.0743564871   -2.6397009254
S       -0.2476129339    3.0492961678   -1.3256829587
H       -2.1728004691    3.8450334391    2.7733061642
H       -1.3977764373    4.7039408696    1.3500550777
H        0.5932951899    3.2696146439    1.4759999894
H       -0.1120512688    2.3005319307    2.8658877387
H       -2.0697167854    1.6706392735    1.5452647196
H        0.4941891462    0.8395540811   -1.6487656753
H        1.8159920452    2.0479033811   -1.8645557174
H        1.2755015495    1.5907971059   -0.2155366297
H       -0.0122231575    5.1217418725   -0.8922089651
H       -2.3648253531    2.6040726356   -0.7545141814
18   
torsion grid (75,)
C       -1.5961629258    3.7461502478    1.9577630016
C       -0.2697013199    3.0145287911    1.9492802909
C       -1.4209656653    2.5027568854    1.1108970568
C        0.9571988959    1.7016648329   -1.2415762525
N        0.6750875661    4.2573335973   -0.7998205720
N       -1.4414119509    2.5197309483   -0.3387579669
O       -0.8501724716    3.1447930695   -2.6570956895
S       -0.1768989620    3.0870184806   -1.3414128677
H       -2.2334892739    3.6860889466    2.8353267969
H       -1.6239201226    4.6956178593    1.4308879391
H        0.5555981929    3.5115190892    1.4543719559
H       -0.0066878580    2.4130117008    2.8141828388
H       -1.8885453895    1.5976897661    1.4924427690
H        0.4287810066    0.8297710232   -1.6257193093
H        1.8233281718    1.9502885587   -1.8550480487
H        1.2494719839    1.5591180551   -0.2011621393
H        0.1819642992    5.1445112090   -0.9257528259
H       -2.3263078722    2.7954544318   -0.7595312894
18   
torsion grid (90,)
C       -1.3991911397    3.7464409830    2.0413835686
C        0.0241066626    3.2650728905    1.8867064034
C       -1.0690646511    2.6860780744    1.0090780961
C        1.1560774980    2.1296439138   -1.4941460369
N        0.9914167009    4.6394826826   -0.8136758337
N       -1.1669604401    2.9505230929   -0.4073550553
O       -0.6617913642    3.7585010798   -2.6835551268
S        0.0696215331    3.5544346360   -1.4141613354
H       -1.9695916363    3.4472458919    2.9159976031
H       -1.6248197450    4.7388203313    1.6616344554
H        0.7392428362    3.9402774100    1.4335045405
H        0.4258612291    2.5991881130    2.6444480313
H       -1.3639512554    1.6685193790    1.2586071384
H        0.5796622409    1.3121081874   -1.9261035621
H        2.0015794727    2.4031224953   -2.1255393349
H        1.4921411062    1.8879555421   -0.4855652669
H        0.5237473500    5.5492014125   -0.8323203662
H       -2.0712832399    3.2475133778   -0.7640782922
18   
torsion grid (105,)
C       -1.6180149442    3.6164169775    2.0561625832
C       -0.1990050702    3.1376112299    1.8754855817
C       -1.3007686712    2.5848240527    0.9911811006
C        1.0189684235    1.7808814019   -1.2351506547
N        0.8706677378    4.3597416116   -0.8962422744
N       -1.3707427475    2.9493816153   -0.4058154248
O       -0.6644345991    3.2260716358   -2.7559293763
S       -0.0345457943    3.2289365694   -1.4181111141
H       -2.1775842575    3.2947033588    2.9300200478
H       -1.8545362602    4.6112821093    1.6923658504
H        0.5139687954    3.8202238440    1.4290962562
H        0.2104384306    2.4549346276    2.6141760521
H       -1.5918859621    1.5559662280    1.1970151656
H        0.4394877804    0.9159737157   -1.5600366961
H        1.8878919720    1.9299565913   -1.8767690269
H        1.3219431945    1.6895328367   -0.1923671982
H        0.4012810376    5.2625208491   -1.0004975564
H       -2.1568933069    2.5842079582   -0.9348216056
18   
torsion grid (120,)
C       -1.6982215879    3.5217136564    2.0747696764
C       -0.2244934832    3.2717814658    1.8858733515
C       -1.2253296495    2.5986262433    0.9673997444
C        0.9631607175    1.7013281915   -1.2310441707
N        0.9983346451    4.2901203060   -0.9323092627
N       -1.3384946882    3.0494831473   -0.3995285667
O       -0.6242042086    3.2403590077   -2.7662587144
S        0.0139804386    3.2177782276   -1.4321852806
H       -2.2028117280    3.0738078890    2.9260034181
H       -2.0864026742    4.4834934701    1.7557207771
H        0.3843991309    4.0609634592    1.4629727102
H        0.2843107438    2.6301045931    2.5989070458
H       -1.3686444381    1.5290853645    1.1217537305
H        0.3202085911    0.8711426267   -1.5262816989
H        1.8276888513    1.7753163680   -1.8913196486
H        1.2801958170    1.6133670008   -0.1922374863
H        0.5959840346    5.2218780602   -1.0600178480
H       -2.1313300787    2.6850667533   -0.9218077569
18   
torsion grid (135,)
C       -1.7686911857    3.4168164666    2.0909679443
C       -0.2705234655    3.4340189012    1.9264831779
C       -1.1210986568    2.6355038728    0.9634379957
C        0.8840815281    1.6294999153   -1.2899748213
N        1.1221931117    4.2019993832   -0.9563691354
N       -1.2903495159    3.1406280109   -0.3770260466
O       -0.6182509332    3.3023101436   -2.7666541526
S        0.0482735243    3.2167494436   -1.4489359777
H       -2.2005076110    2.8492400617    2.9099661313
H       -2.3151478212    4.3088632760    1.8029843561
H        0.1970185495    4.3286296376    1.5350158429
H        0.3363413892    2.8713696918    2.6290932455
H       -1.0939345353    1.5505846280    1.0740902788
H        0.1752436164    0.8518496882   -1.5776501003
H        1.7330761624    1.6500769764   -1.9737296857
H        1.2249068369    1.5045002146   -0.2625784200
H        0.7939368623    5.1644468015   -1.0658797133
H       -2.0996836781    2.7755331006   -0.8758155049
18   
torsion grid (150,)
C       -1.8362635489    3.3039157890    2.0879434478
C       -0.3578856011    3.6040647379    2.0001100904
C       -0.9985612176    2.6937370202    0.9829439810
C        0.8052471150    1.5495643638   -1.3870120468
N        1.2566032395    4.0793912142   -0.9650761326
N       -1.2144048231    3.2056613395   -0.3486441561
O       -0.5996826446    3.3774864076   -2.7564126156
S        0.0944444212    3.2035045508   -1.4621691916
H       -2.1918846366    2.6401679561    2.8701010582
H       -2.5245881812    4.0907668573    1.7968998818
H       -0.0580796437    4.5833494267    1.6466222906
H        0.3126703136    3.1512547360    2.7234913372
H       -0.7889325816    1.6269272303    1.0742357337
H        0.0193783636    0.8362525709   -1.6393634398
H        1.6021686744    1.5212008198   -2.1306975268
H        1.2100363646    1.3717365158   -0.3913352366
H        1.0073501103    5.0691907865   -1.0246374037
H       -2.0432473996    2.8346910805   -0.8121831465
18   
torsion grid (165,)
C       -1.8668643165    3.1953908883    2.0760845389
C       -0.4728513134    3.7896304267    2.0794067028
C       -0.8603085118    2.7894894775    1.0233803009
C        0.7153528347    1.4766754630   -1.4944453925
N        1.3915361680    3.9395182048   -0.9809673454
N       -1.1170708403    3.2623699962   -0.3179672981
O       -0.5720107935    3.4571060721   -2.7390809295
S        0.1454395832    3.1867711101   -1.4751328479
H       -2.1265844704    2.4604163479    2.8316180267
H       -2.6817639360    3.8376298531    1.7567687120
H       -0.3655737046    4.8169735823    1.7495564605
H        0.2310481156    3.4706363502    2.8414484512
H       -0.4513959028    1.7835546782    1.1222621958
H       -0.1393499230    0.8428407690   -1.7347393081
H        1.4697065907    1.4139823095   -2.2793751877
H        1.1530699616    1.2204553559   -0.5304524645
H        1.2220849836    4.9475350360   -0.9677569602
H       -1.9709857114    2.8922621531   -0.7349688147
18   
torsion grid (180,)
C       -1.8468860511    3.0537190309    2.0895987194
C       -0.6144222990    3.9387611321    2.1707457745
C       -0.7263337592    2.8967160842    1.0912773937
C        0.6267389991    1.4078444412   -1.5301419197
N        1.5336806388    3.7796163354   -0.9386896317
N       -1.0098237809    3.3154042844   -0.2670548147
O       -0.4825175554    3.5317183602   -2.6917890290
S        0.2198749409    3.1626280719   -1.4455892388
H       -1.9817513031    2.2685999861    2.8270136135
H       -2.7655601211    3.5162995438    1.7405579344
H       -0.7247736919    4.9708935319    1.8552056588
H        0.1005892428    3.7683546135    2.9696326187
H       -0.1094252058    2.0068632965    1.2065833299
H       -0.2768247648    0.8729062791   -1.8252033007
H        1.3981539047    1.3067143211   -2.2941878209
H        1.0046386750    1.0635574826   -0.5681281727
H        1.4562975894    4.7970306395   -0.8770158429
H       -1.8852318141    2.9535467321   -0.6438677934
