30   
torsion grid (-60,)
C       -5.6477429322    2.1213056948   -0.0860347119
C       -5.6611433416    0.9580064274    0.7232053283
C       -4.4975273189    2.4229467873   -0.8449789467
C       -4.5025499946    0.1712795147    0.6141425949
C       -3.2697596940    1.7708182835   -0.5741431292
C       -3.3016490691    0.9095155292    0.5375314047
C        1.5481015442   -0.0475409330    0.0716124288
C        0.1738448540   -0.5019860756   -1.7600133547
C       -0.9506097209   -0.6655058587   -0.7474122502
C        0.4019880161    0.3483080903    0.9860734668
C        0.7395761234    1.7105972214    1.6157433836
C       -2.0312571207    0.3602597617    1.1517654540
N        1.5006165359   -0.3997278422   -1.1503989849
N       -0.8715769232    0.3920552217    0.2623741431
H       -6.5345951753    2.7426685381   -0.1803230162
H       -6.5854586990    0.5747694633    1.1465171449
H       -4.5448076934    3.2050852628   -1.5988541456
H       -4.4660472129   -0.7800857384    1.1520869141
H       -2.3268357069    2.1145847684   -0.9884752551
H        2.5383171489    0.0108332338    0.5366018946
H        0.1874466316   -1.3528047200   -2.4501500999
H        0.0112319541    0.3968844221   -2.3678455561
H       -1.9202544460   -0.5997452500   -1.2489494891
H       -0.8883544690   -1.6685275151   -0.2820580139
H        0.3747134299   -0.4096260261    1.7964932927
H        0.8140055688    2.4737772997    0.8357175794
H        1.6928445028    1.6597215906    2.1522159380
H       -0.0236138546    2.0263043630    2.3316536465
H       -1.8109525912    0.9759818394    2.0308386658
H       -2.2207174853   -0.6583419931    1.5405095805
30   
torsion grid (-45,)
C       -5.6775310213    2.0643727193   -0.2096651202
C       -5.6743250513    0.8999932742    0.5785510708
C       -4.4841608699    2.4835076974   -0.8244877486
C       -4.4653498366    0.1910111632    0.6622696901
C       -3.2595773447    1.8970022355   -0.4633138798
C       -3.2781033575    0.9366980996    0.5644281942
C        1.5418810633   -0.1021250322    0.0034799942
C        0.1078022588   -0.5181600121   -1.7906491510
C       -0.9952332783   -0.6424813208   -0.7493983520
C        0.4317364474    0.3309828007    0.9452364653
C        0.8302165520    1.6803164922    1.5671950616
C       -1.9922401610    0.4216401345    1.1765438844
N        1.4524685050   -0.4556419069   -1.2157641219
N       -0.8573846510    0.4164515550    0.2529536460
H       -6.6016046650    2.6085343328   -0.3871309715
H       -6.6054942534    0.4639783231    0.9306015496
H       -4.5061420364    3.2952424397   -1.5476056278
H       -4.4399811417   -0.7482814524    1.2168229683
H       -2.3121391546    2.2959420646   -0.8137728029
H        2.5448871907   -0.0734948448    0.4432393552
H        0.0769208210   -1.3713380081   -2.4773352871
H       -0.0422925558    0.3833744124   -2.3976506144
H       -1.9742307798   -0.5478586658   -1.2270572359
H       -0.9528232493   -1.6452090967   -0.2808623511
H        0.3988283906   -0.4263397761    1.7561935417
H        0.9076353863    2.4425706104    0.7864913537
H        1.7962576969    1.5974026987    2.0761105940
H        0.0987632182    2.0186067542    2.3054537695
H       -1.7462162426    1.0758202448    2.0195422622
H       -2.1677399025   -0.5807988298    1.6107765025
30   
torsion grid (-30,)
C       -5.6836588825    2.0133645147   -0.2986057561
C       -5.6804751447    0.8619095444    0.4991460706
C       -4.4697301827    2.5047523864   -0.8015883769
C       -4.4619322992    0.2144717238    0.7480454425
C       -3.2562504675    1.9524577360   -0.3755536178
C       -3.2657025912    0.9280691403    0.5861407514
C        1.5391903155   -0.1245992629   -0.0303900771
C        0.0765395433   -0.5283676026   -1.8042739210
C       -1.0122115053   -0.6466524458   -0.7474626182
C        0.4455682468    0.3146855279    0.9277098529
C        0.8621712368    1.6603290561    1.5458461328
C       -1.9739910803    0.4217511689    1.1943870599
N        1.4297770214   -0.4757386119   -1.2486975487
N       -0.8525912416    0.4099233916    0.2541367354
H       -6.6202251274    2.5011694731   -0.5564099195
H       -6.6172734982    0.4041046254    0.8066361587
H       -4.4706328049    3.3371992035   -1.5011069057
H       -4.4533219973   -0.7061671029    1.3306463975
H       -2.3063319183    2.3785515274   -0.6857311723
H        2.5486079672   -0.1034122033    0.3949375637
H        0.0300633581   -1.3803336388   -2.4915909034
H       -0.0762731511    0.3751014245   -2.4076615278
H       -1.9973975018   -0.5442316683   -1.2105830831
H       -0.9701290443   -1.6504050464   -0.2809672057
H        0.4191887270   -0.4435781649    1.7380999003
H        0.9327598996    2.4233803634    0.7652466294
H        1.8353330218    1.5703857704    2.0397977379
H        0.1442571552    2.0019435370    2.2957566211
H       -1.7156763483    1.0812302201    2.0290555352
H       -2.1432015432   -0.5787668809    1.6351852564
30   
torsion grid (-15,)
C       -5.6730219787    1.9423137565   -0.3874162057
C       -5.6694238451    0.8014065826    0.4207693012
C       -4.4550857686    2.5154007614   -0.7761820403
C       -4.4522141235    0.2355046086    0.8202063103
C       -3.2499281914    2.0017440471   -0.2910882638
C       -3.2494823471    0.9186107582    0.6015334479
C        1.5310357727   -0.1736562329   -0.0733051279
C        0.0340092742   -0.5567899164   -1.8227965727
C       -1.0387179198   -0.6598564417   -0.7481440288
C        0.4593937168    0.2796097218    0.9030154357
C        0.9054642776    1.6174858779    1.5174281811
C       -1.9529884678    0.4228525245    1.2090283337
N        1.3968838921   -0.5227695065   -1.2897089084
N       -0.8475799931    0.3947327874    0.2501207140
H       -6.6127692601    2.3693469377   -0.7282295893
H       -6.6056606058    0.3142110216    0.6816472414
H       -4.4477913017    3.3719356200   -1.4459709664
H       -4.4508953836   -0.6688619070    1.4260154704
H       -2.3023193359    2.4611233935   -0.5584252849
H        2.5475352380   -0.1663512940    0.3353066465
H       -0.0355627761   -1.4080483970   -2.5090563511
H       -0.1163480219    0.3487757503   -2.4235981892
H       -2.0299047874   -0.5435202880   -1.1949051801
H       -1.0031308196   -1.6641078041   -0.2820677714
H        0.4347107976   -0.4800295668    1.7122870346
H        0.9719382460    2.3820537520    0.7379193838
H        1.8864452197    1.5128047620    1.9926441210
H        0.2066605500    1.9661247573    2.2819820378
H       -1.6798571730    1.0953044133    2.0282013432
H       -2.1168884723   -0.5712158995    1.6657798155
30   
torsion grid (0,)
C       -5.6588779652    1.8880420203   -0.4639965623
C       -5.6596155301    0.7650648241    0.3679590926
C       -4.4480787979    2.5292017457   -0.7544097864
C       -4.4580619071    0.2884696382    0.9052303421
C       -3.2508771454    2.0525935176   -0.2161987760
C       -3.2450848107    0.9256245848    0.6193668101
C        1.5251621235   -0.1670652881   -0.0857589417
C        0.0129937710   -0.5385526646   -1.8245803556
C       -1.0511622327   -0.6434397105   -0.7416075257
C        0.4630708505    0.2859147173    0.9010007242
C        0.9176307766    1.6210124308    1.5153681723
C       -1.9466816031    0.4334177389    1.2276346277
N        1.3802268651   -0.5109379970   -1.3024014104
N       -0.8490234112    0.4062034521    0.2597683166
H       -6.5899723945    2.2578414592   -0.8859452686
H       -6.5930908170    0.2561583416    0.5950776989
H       -4.4390837305    3.4014883169   -1.4035199316
H       -4.4644411261   -0.5924910244    1.5441621603
H       -2.3063774124    2.5352274613   -0.4520022493
H        2.5449519761   -0.1646438751    0.3146311982
H       -0.0645187138   -1.3863975810   -2.5141907562
H       -0.1396853048    0.3702884292   -2.4197925340
H       -2.0457227770   -0.5219851343   -1.1796205577
H       -1.0149456642   -1.6499248606   -0.2804534631
H        0.4435829591   -0.4759175066    1.7083672325
H        0.9805555032    2.3872727167    0.7372201249
H        1.9017966302    1.5124542605    1.9830781950
H        0.2253920663    1.9696808362    2.2858779749
H       -1.6680891405    1.1057821906    2.0448126922
H       -2.1070351340   -0.5616412809    1.6833421139
30   
torsion grid (15,)
C       -5.6296860324    1.8220818274   -0.5405693628
C       -5.6372606201    0.7186615202    0.3182023002
C       -4.4382400931    2.5313971827   -0.7406157960
C       -4.4621796773    0.3432221323    0.9811235559
C       -3.2511454110    2.0904404326   -0.1504294107
C       -3.2377020392    0.9237632020    0.6298275475
C        1.5140043737   -0.1966585962   -0.1140831389
C       -0.0200652920   -0.5456844646   -1.8385970078
C       -1.0737625734   -0.6454010219   -0.7449996203
C        0.4664578711    0.2613215034    0.8858884451
C        0.9402099021    1.5884326316    1.5029763437
C       -1.9382633984    0.4321293971    1.2380215819
N        1.3527770446   -0.5334078005   -1.3306675166
N       -0.8507654474    0.3978055496    0.2588355464
H       -6.5433245794    2.1339735222   -1.0401693444
H       -6.5649855592    0.1880146786    0.5173762260
H       -4.4331651499    3.4169870714   -1.3714764414
H       -4.4751686486   -0.5114706876    1.6551999537
H       -2.3105638310    2.5936949105   -0.3575778912
H        2.5379677583   -0.2056891085    0.2754604020
H       -0.1127911978   -1.3894858151   -2.5312708472
H       -0.1703731274    0.3674098982   -2.4278396009
H       -2.0716473220   -0.5119236679   -1.1720055458
H       -1.0429361929   -1.6543129327   -0.2888548286
H        0.4476618187   -0.5047234113    1.6893144648
H        1.0012396580    2.3588394158    0.7287701326
H        1.9286721539    1.4680428474    1.9585560651
H        0.2601830982    1.9385092941    2.2836772153
H       -1.6498432694    1.1073758375    2.0492568256
H       -2.0979787308   -0.5612117488    1.6976426514
30   
torsion grid (30,)
C       -5.6074337153    1.7301355282   -0.5773072092
C       -5.6143113073    0.6665948738    0.3361594194
C       -4.4442277573    2.4984565491   -0.7373300506
C       -4.4585595115    0.4257116417    1.0902372772
C       -3.2511323743    2.1126317842   -0.1121284203
C       -3.2308523974    0.9265371297    0.6385127657
C        1.5118444899   -0.1624191114   -0.1715485205
C       -0.0438967130   -0.4948529070   -1.8797098346
C       -1.0823283767   -0.6120314257   -0.7733375985
C        0.4768873798    0.2808726754    0.8477929733
C        0.9544960947    1.6031902189    1.4723374814
C       -1.9235368428    0.4356085592    1.2340060924
N        1.3355260402   -0.4848281216   -1.3899232945
N       -0.8492830150    0.4192365438    0.2406686052
H       -6.5043421296    1.9761331531   -1.1400934638
H       -6.5338401536    0.1266483925    0.5461344779
H       -4.4618976615    3.3778511034   -1.3766580033
H       -4.4668481842   -0.3799046410    1.8235924383
H       -2.3183642491    2.6252419071   -0.3299012253
H        2.5408878703   -0.1734484139    0.2042774186
H       -0.1433157365   -1.3299594591   -2.5818963599
H       -0.2048838652    0.4252879071   -2.4549907930
H       -2.0865000057   -0.4762399086   -1.1850470022
H       -1.0424028234   -1.6264640932   -0.3305300412
H        0.4720986279   -0.4936696530    1.6431951837
H        1.0054989636    2.3811100192    0.7049569484
H        1.9480223905    1.4808057406    1.9162322851
H        0.2818579932    1.9441422530    2.2634327547
H       -1.6293061639    1.1016217494    2.0508585524
H       -2.0733204009   -0.5650441663    1.6808447719
30   
torsion grid (45,)
C       -5.5675886820    1.6501720769   -0.6488253621
C       -5.5862857943    0.6425768594    0.3325274048
C       -4.4303054960    2.4669194904   -0.7745829646
C       -4.4660140183    0.5466662498    1.1726906915
C       -3.2426676833    2.1301017141   -0.1021109111
C       -3.2289058480    0.9292708453    0.6300021857
C        1.5090914463   -0.1837202629   -0.1506294396
C       -0.0372881586   -0.4677119068   -1.8761791147
C       -1.0852632843   -0.5929162863   -0.7797912843
C        0.4709498322    0.2501321920    0.8696004104
C        0.9591061251    1.5517687332    1.5282286064
C       -1.9299470258    0.4291586495    1.2382860556
N        1.3383929532   -0.4812253801   -1.3761050346
N       -0.8479932759    0.4180599673    0.2541060393
H       -6.4378905687    1.8276635818   -1.2753090594
H       -6.5007506567    0.0993761824    0.5553825617
H       -4.4569929302    3.3319010136   -1.4328352668
H       -4.4723081731   -0.1982511817    1.9701602082
H       -2.3090310688    2.6415039950   -0.3197435967
H        2.5351510446   -0.2127219282    0.2323179244
H       -0.1403354726   -1.2891504188   -2.5937728896
H       -0.1839808721    0.4641285941   -2.4362190038
H       -2.0847336767   -0.4385278165   -1.1966021576
H       -1.0601380459   -1.6151607906   -0.3544182556
H        0.4490819970   -0.5419980736    1.6472610297
H        1.0226316020    2.3473889855    0.7801862978
H        1.9488832162    1.4078202398    1.9739864336
H        0.2862141837    1.8807211144    2.3241751279
H       -1.6422925653    1.0868817384    2.0643178375
H       -2.0887298700   -0.5754708110    1.6731780489
30   
torsion grid (60,)
C       -5.5710966470    1.5852381003   -0.6224760961
C       -5.5836629884    0.7150413773    0.4976051634
C       -4.4301480016    2.3746256015   -0.8703487466
C       -4.4371248557    0.7966473497    1.3031238587
C       -3.2058943566    2.0866376359   -0.2153344311
C       -3.2313590422    0.9301248399    0.5835402920
C        1.5310576590   -0.1134725068   -0.1861928824
C        0.0191865937   -0.3496651367   -1.9497716237
C       -1.0432274306   -0.5461481831   -0.8780633957
C        0.4677533740    0.2502742539    0.8355672267
C        0.9168676821    1.5296634005    1.5619546580
C       -1.9437284032    0.3671247433    1.1647841716
N        1.3863378024   -0.3566291212   -1.4269500708
N       -0.8435670404    0.4208541974    0.2051085878
H       -6.4513176264    1.6953295377   -1.2505081730
H       -6.5042281502    0.2546886355    0.8454012029
H       -4.4775281230    3.1645167337   -1.6160574504
H       -4.4069849114    0.1979227110    2.2182590690
H       -2.2640048471    2.5170119357   -0.5427620202
H        2.5513609016   -0.1385300323    0.2120336079
H       -0.0540933774   -1.1402654398   -2.7046702049
H       -0.1384830657    0.6027925600   -2.4708653262
H       -2.0391241859   -0.3937170180   -1.3040461092
H       -1.0026693750   -1.5857524527   -0.4987803546
H        0.4499588190   -0.5779303915    1.5746840965
H        0.9784383165    2.3597160400    0.8521917795
H        1.9004941011    1.3847165329    2.0207826205
H        0.2218618804    1.8093231413    2.3578368704
H       -1.6704568581    0.9460315406    2.0526958653
H       -2.1233848293   -0.6685472790    1.5099933338
