
  -OEChem-12102412483D

 48 51  0     0  0  0  0  0  0999 V2000
    3.9559   -0.5781   -2.7283 C   0  0  0  0  0  0  0  0  0  0  0  0
    4.6908   -0.7948   -0.4436 C   0  0  0  0  0  0  0  0  0  0  0  0
    1.7970   -0.2258    0.2691 C   0  0  0  0  0  0  0  0  0  0  0  0
    1.8470    1.2921   -1.6020 C   0  0  0  0  0  0  0  0  0  0  0  0
    5.1407   -1.1620   -3.1798 C   0  0  0  0  0  0  0  0  0  0  0  0
    5.8837   -1.3723   -0.8773 C   0  0  0  0  0  0  0  0  0  0  0  0
    0.6068    0.3471    0.7201 C   0  0  0  0  0  0  0  0  0  0  0  0
    0.6527    1.8693   -1.1715 C   0  0  0  0  0  0  0  0  0  0  0  0
    7.6291   -4.1063   -6.8786 C   0  0  0  0  0  0  0  0  0  0  0  0
    7.8492   -4.7263   -4.5378 C   0  0  0  0  0  0  0  0  0  0  0  0
   -2.0134    3.2739    3.2611 C   0  0  0  0  0  0  0  0  0  0  0  0
   -2.6457    1.5051    4.8050 C   0  0  0  0  0  0  0  0  0  0  0  0
    7.8705   -5.4284   -7.2568 C   0  0  0  0  0  0  0  0  0  0  0  0
    8.1001   -6.0475   -4.9180 C   0  0  0  0  0  0  0  0  0  0  0  0
   -2.2387    4.2210    4.2638 C   0  0  0  0  0  0  0  0  0  0  0  0
   -2.8613    2.4513    5.8087 C   0  0  0  0  0  0  0  0  0  0  0  0
    3.7057   -0.3838   -1.3590 C   0  0  0  0  0  0  0  0  0  0  0  0
    2.4400    0.2317   -0.8940 C   0  0  0  0  0  0  0  0  0  0  0  0
    6.1011   -1.5503   -2.2442 C   0  0  0  0  0  0  0  0  0  0  0  0
    0.0397    1.3910   -0.0129 C   0  0  0  0  0  0  0  0  0  0  0  0
    7.6220   -3.7649   -5.5249 C   0  0  0  0  0  0  0  0  0  0  0  0
   -2.2264    1.9222    3.5404 C   0  0  0  0  0  0  0  0  0  0  0  0
    8.1080   -6.3894   -6.2714 C   0  0  0  0  0  0  0  0  0  0  0  0
   -2.6592    3.8045    5.5281 C   0  0  0  0  0  0  0  0  0  0  0  0
    7.2974   -2.1883   -2.6008 O   0  0  0  0  0  0  0  0  0  0  0  0
   -1.1266    2.0564    0.3908 O   0  0  0  0  0  0  0  0  0  0  0  0
    7.3166   -2.4312   -5.2305 O   0  0  0  0  0  0  0  0  0  0  0  0
   -1.9809    0.9067    2.6092 O   0  0  0  0  0  0  0  0  0  0  0  0
    8.1232   -1.6684   -3.9669 S   0  0  0  0  0  0  0  0  0  0  0  0
   -2.4057    1.1559    1.0006 S   0  0  0  0  0  0  0  0  0  0  0  0
    8.4166   -8.0533   -6.7426 Cl  0  0  0  0  0  0  0  0  0  0  0  0
   -2.9349    4.9990    6.7863 Cl  0  0  0  0  0  0  0  0  0  0  0  0
    3.1970   -0.3043   -3.4559 H   0  0  0  0  0  0  0  0  0  0  0  0
    4.5406   -0.6293    0.6195 H   0  0  0  0  0  0  0  0  0  0  0  0
    2.2206   -1.0582    0.8239 H   0  0  0  0  0  0  0  0  0  0  0  0
    2.3338    1.6854   -2.4899 H   0  0  0  0  0  0  0  0  0  0  0  0
    5.3049   -1.3302   -4.2386 H   0  0  0  0  0  0  0  0  0  0  0  0
    6.6530   -1.6747   -0.1729 H   0  0  0  0  0  0  0  0  0  0  0  0
    0.1270   -0.0142    1.6232 H   0  0  0  0  0  0  0  0  0  0  0  0
    0.1947    2.6903   -1.7152 H   0  0  0  0  0  0  0  0  0  0  0  0
    7.4484   -3.3369   -7.6230 H   0  0  0  0  0  0  0  0  0  0  0  0
    7.8223   -4.4557   -3.4880 H   0  0  0  0  0  0  0  0  0  0  0  0
   -1.6689    3.5866    2.2816 H   0  0  0  0  0  0  0  0  0  0  0  0
   -2.8021    0.4471    4.9923 H   0  0  0  0  0  0  0  0  0  0  0  0
    7.8819   -5.7067   -8.3057 H   0  0  0  0  0  0  0  0  0  0  0  0
    8.2776   -6.8075   -4.1638 H   0  0  0  0  0  0  0  0  0  0  0  0
   -2.0776    5.2755    4.0639 H   0  0  0  0  0  0  0  0  0  0  0  0
   -3.1906    2.1410    6.7951 H   0  0  0  0  0  0  0  0  0  0  0  0
  1  5  1  0  0  0  0
  1 17  2  0  0  0  0
  1 33  1  0  0  0  0
  2  6  2  0  0  0  0
  2 17  1  0  0  0  0
  2 34  1  0  0  0  0
  3  7  2  0  0  0  0
  3 18  1  0  0  0  0
  3 35  1  0  0  0  0
  4  8  1  0  0  0  0
  4 18  2  0  0  0  0
  4 36  1  0  0  0  0
  5 19  2  0  0  0  0
  5 37  1  0  0  0  0
  6 19  1  0  0  0  0
  6 38  1  0  0  0  0
  7 20  1  0  0  0  0
  7 39  1  0  0  0  0
  8 20  2  0  0  0  0
  8 40  1  0  0  0  0
  9 13  2  0  0  0  0
  9 21  1  0  0  0  0
  9 41  1  0  0  0  0
 10 14  1  0  0  0  0
 10 21  2  0  0  0  0
 10 42  1  0  0  0  0
 11 15  2  0  0  0  0
 11 22  1  0  0  0  0
 11 43  1  0  0  0  0
 12 16  1  0  0  0  0
 12 22  2  0  0  0  0
 12 44  1  0  0  0  0
 13 23  1  0  0  0  0
 13 45  1  0  0  0  0
 14 23  2  0  0  0  0
 14 46  1  0  0  0  0
 15 24  1  0  0  0  0
 15 47  1  0  0  0  0
 16 24  2  0  0  0  0
 16 48  1  0  0  0  0
 17 18  1  0  0  0  0
 19 25  1  0  0  0  0
 20 26  1  0  0  0  0
 21 27  1  0  0  0  0
 22 28  1  0  0  0  0
 23 31  1  0  0  0  0
 24 32  1  0  0  0  0
 25 29  1  0  0  0  0
 26 30  1  0  0  0  0
 27 29  1  0  0  0  0
 28 30  1  0  0  0  0
M  END
$$$$
