
  -OEChem-12102412483D

 48 51  0     0  0  0  0  0  0999 V2000
    5.3055   -2.9691   -0.0116 C   0  0  0  0  0  0  0  0  0  0  0  0
    4.3733   -4.9919    0.9081 C   0  0  0  0  0  0  0  0  0  0  0  0
    2.4313   -3.1398    2.3278 C   0  0  0  0  0  0  0  0  0  0  0  0
    2.5043   -1.8428    0.2981 C   0  0  0  0  0  0  0  0  0  0  0  0
    6.4407   -3.6654   -0.4296 C   0  0  0  0  0  0  0  0  0  0  0  0
    5.5046   -5.7013    0.5064 C   0  0  0  0  0  0  0  0  0  0  0  0
    1.3049   -2.4347    2.7548 C   0  0  0  0  0  0  0  0  0  0  0  0
    1.3746   -1.1338    0.7052 C   0  0  0  0  0  0  0  0  0  0  0  0
   10.4705   -4.1494   -3.9178 C   0  0  0  0  0  0  0  0  0  0  0  0
    9.0767   -6.0889   -3.4619 C   0  0  0  0  0  0  0  0  0  0  0  0
   -1.5644   -0.5071    6.8269 C   0  0  0  0  0  0  0  0  0  0  0  0
   -0.9213    0.9952    5.0264 C   0  0  0  0  0  0  0  0  0  0  0  0
   10.7914   -4.6688   -5.1733 C   0  0  0  0  0  0  0  0  0  0  0  0
    9.4063   -6.6124   -4.7151 C   0  0  0  0  0  0  0  0  0  0  0  0
   -1.6413    0.5733    7.7078 C   0  0  0  0  0  0  0  0  0  0  0  0
   -1.0078    2.0771    5.9068 C   0  0  0  0  0  0  0  0  0  0  0  0
    4.2531   -3.6126    0.6619 C   0  0  0  0  0  0  0  0  0  0  0  0
    3.0528   -2.8605    1.0985 C   0  0  0  0  0  0  0  0  0  0  0  0
    6.5326   -5.0316   -0.1585 C   0  0  0  0  0  0  0  0  0  0  0  0
    0.7812   -1.4365    1.9315 C   0  0  0  0  0  0  0  0  0  0  0  0
    9.6192   -4.8626   -3.0718 C   0  0  0  0  0  0  0  0  0  0  0  0
   -1.2075   -0.2889    5.4949 C   0  0  0  0  0  0  0  0  0  0  0  0
   10.2588   -5.9005   -5.5608 C   0  0  0  0  0  0  0  0  0  0  0  0
   -1.3651    1.8596    7.2387 C   0  0  0  0  0  0  0  0  0  0  0  0
    7.6128   -5.8204   -0.5793 O   0  0  0  0  0  0  0  0  0  0  0  0
   -0.3153   -0.6437    2.2985 O   0  0  0  0  0  0  0  0  0  0  0  0
    9.3067   -4.2465   -1.8547 O   0  0  0  0  0  0  0  0  0  0  0  0
   -1.0988   -1.4316    4.6942 O   0  0  0  0  0  0  0  0  0  0  0  0
    9.1671   -5.1954   -0.4727 S   0  0  0  0  0  0  0  0  0  0  0  0
   -1.6096   -1.3588    3.0932 S   0  0  0  0  0  0  0  0  0  0  0  0
   10.6654   -6.5609   -7.1370 Cl  0  0  0  0  0  0  0  0  0  0  0  0
   -1.4648    3.2227    8.3422 Cl  0  0  0  0  0  0  0  0  0  0  0  0
    5.2495   -1.9000   -0.1964 H   0  0  0  0  0  0  0  0  0  0  0  0
    3.5649   -5.5229    1.4027 H   0  0  0  0  0  0  0  0  0  0  0  0
    2.8555   -3.8954    2.9831 H   0  0  0  0  0  0  0  0  0  0  0  0
    2.9431   -1.6248   -0.6714 H   0  0  0  0  0  0  0  0  0  0  0  0
    7.2405   -3.1537   -0.9540 H   0  0  0  0  0  0  0  0  0  0  0  0
    5.5983   -6.7670    0.6933 H   0  0  0  0  0  0  0  0  0  0  0  0
    0.8555   -2.6439    3.7194 H   0  0  0  0  0  0  0  0  0  0  0  0
    0.9393   -0.3590    0.0810 H   0  0  0  0  0  0  0  0  0  0  0  0
   10.8759   -3.1981   -3.5870 H   0  0  0  0  0  0  0  0  0  0  0  0
    8.4007   -6.6263   -2.8060 H   0  0  0  0  0  0  0  0  0  0  0  0
   -1.7804   -1.5170    7.1620 H   0  0  0  0  0  0  0  0  0  0  0  0
   -0.6258    1.1526    3.9950 H   0  0  0  0  0  0  0  0  0  0  0  0
   11.4548   -4.1265   -5.8393 H   0  0  0  0  0  0  0  0  0  0  0  0
    8.9933   -7.5640   -5.0342 H   0  0  0  0  0  0  0  0  0  0  0  0
   -1.9204    0.4181    8.7450 H   0  0  0  0  0  0  0  0  0  0  0  0
   -0.7877    3.0815    5.5596 H   0  0  0  0  0  0  0  0  0  0  0  0
  1  5  1  0  0  0  0
  1 17  2  0  0  0  0
  1 33  1  0  0  0  0
  2  6  2  0  0  0  0
  2 17  1  0  0  0  0
  2 34  1  0  0  0  0
  3  7  2  0  0  0  0
  3 18  1  0  0  0  0
  3 35  1  0  0  0  0
  4  8  1  0  0  0  0
  4 18  2  0  0  0  0
  4 36  1  0  0  0  0
  5 19  2  0  0  0  0
  5 37  1  0  0  0  0
  6 19  1  0  0  0  0
  6 38  1  0  0  0  0
  7 20  1  0  0  0  0
  7 39  1  0  0  0  0
  8 20  2  0  0  0  0
  8 40  1  0  0  0  0
  9 13  2  0  0  0  0
  9 21  1  0  0  0  0
  9 41  1  0  0  0  0
 10 14  1  0  0  0  0
 10 21  2  0  0  0  0
 10 42  1  0  0  0  0
 11 15  2  0  0  0  0
 11 22  1  0  0  0  0
 11 43  1  0  0  0  0
 12 16  1  0  0  0  0
 12 22  2  0  0  0  0
 12 44  1  0  0  0  0
 13 23  1  0  0  0  0
 13 45  1  0  0  0  0
 14 23  2  0  0  0  0
 14 46  1  0  0  0  0
 15 24  1  0  0  0  0
 15 47  1  0  0  0  0
 16 24  2  0  0  0  0
 16 48  1  0  0  0  0
 17 18  1  0  0  0  0
 19 25  1  0  0  0  0
 20 26  1  0  0  0  0
 21 27  1  0  0  0  0
 22 28  1  0  0  0  0
 23 31  1  0  0  0  0
 24 32  1  0  0  0  0
 25 29  1  0  0  0  0
 26 30  1  0  0  0  0
 27 29  1  0  0  0  0
 28 30  1  0  0  0  0
M  END
$$$$
