
  -OEChem-12122420523D

 28 29  0     1  0  0  0  0  0999 V2000
    2.4306   -0.6115    0.2329 C   0  0  0  0  0  0  0  0  0  0  0  0
    4.7593   -3.4414   -0.2649 C   0  0  0  0  0  0  0  0  0  0  0  0
    4.9153   -2.1947   -1.1043 C   0  0  0  0  0  0  0  0  0  0  0  0
   -0.2241    0.7623   -0.1186 C   0  0  0  0  0  0  0  0  0  0  0  0
   -1.3924   -1.2234    0.3842 C   0  0  0  0  0  0  0  0  0  0  0  0
    3.5489   -2.6120   -0.6192 C   0  0  0  0  0  0  0  0  0  0  0  0
   -0.8420   -0.4616   -0.8115 C   0  0  2  0  0  0  0  0  0  0  0  0
    1.7463    0.0419    1.4429 C   0  0  0  0  0  0  0  0  0  0  0  0
    2.9232   -1.8468    0.4367 N   0  0  0  0  0  0  0  0  0  0  0  0
    0.2592    0.2000    1.2232 N   0  3  2  0  0  0  0  0  0  0  0  0
    2.5076    0.0279   -0.8192 O   0  0  0  0  0  0  0  0  0  0  0  0
   -0.3570   -1.0853    1.4080 O   0  0  0  0  0  0  0  0  0  0  0  0
    0.0868   -1.3070   -1.4504 O   0  0  0  0  0  0  0  0  0  0  0  0
    4.8521   -4.4120   -0.7407 H   0  0  0  0  0  0  0  0  0  0  0  0
    5.1155   -3.4012    0.7605 H   0  0  0  0  0  0  0  0  0  0  0  0
    5.3626   -1.3238   -0.6374 H   0  0  0  0  0  0  0  0  0  0  0  0
    5.1141   -2.2972   -2.1656 H   0  0  0  0  0  0  0  0  0  0  0  0
    0.6248    1.2006   -0.6390 H   0  0  0  0  0  0  0  0  0  0  0  0
   -0.9836    1.5122    0.1069 H   0  0  0  0  0  0  0  0  0  0  0  0
   -2.3349   -0.8126    0.7580 H   0  0  0  0  0  0  0  0  0  0  0  0
   -1.4731   -2.2939    0.2001 H   0  0  0  0  0  0  0  0  0  0  0  0
    2.8434   -3.0053   -1.3464 H   0  0  0  0  0  0  0  0  0  0  0  0
   -1.6423   -0.1339   -1.4867 H   0  0  0  0  0  0  0  0  0  0  0  0
    2.1459    1.0514    1.5647 H   0  0  0  0  0  0  0  0  0  0  0  0
    1.8425   -0.5093    2.3795 H   0  0  0  0  0  0  0  0  0  0  0  0
    2.7010   -2.3265    1.3019 H   0  0  0  0  0  0  0  0  0  0  0  0
   -0.0998    0.7881    1.9848 H   0  0  0  0  0  0  0  0  0  0  0  0
    0.7481   -0.7893   -1.9430 H   0  0  0  0  0  0  0  0  0  0  0  0
  1  8  1  0  0  0  0
  1  9  1  0  0  0  0
  1 11  2  0  0  0  0
  2  3  1  0  0  0  0
  2  6  1  0  0  0  0
  2 14  1  0  0  0  0
  2 15  1  0  0  0  0
  3  6  1  0  0  0  0
  3 16  1  0  0  0  0
  3 17  1  0  0  0  0
  4  7  1  0  0  0  0
  4 10  1  0  0  0  0
  4 18  1  0  0  0  0
  4 19  1  0  0  0  0
  5  7  1  0  0  0  0
  5 12  1  0  0  0  0
  5 20  1  0  0  0  0
  5 21  1  0  0  0  0
  6  9  1  0  0  0  0
  6 22  1  0  0  0  0
  7 13  1  0  0  0  0
  7 23  1  0  0  0  0
  8 10  1  0  0  0  0
  8 24  1  0  0  0  0
  8 25  1  0  0  0  0
  9 26  1  0  0  0  0
 10 12  1  0  0  0  0
 10 27  1  0  0  0  0
 13 28  1  0  0  0  0
M  CHG  1  10   1
M  END
$$$$
