
  -OEChem-12102412483D

 57 60  0     1  0  0  0  0  0999 V2000
    1.1512   12.9880    6.2785 C   0  0  0  0  0  0  0  0  0  0  0  0
    1.4606   12.5011    4.8526 C   0  0  0  0  0  0  0  0  0  0  0  0
    0.6646   11.2925    4.4687 C   0  0  0  0  0  0  0  0  0  0  0  0
   -0.2843   11.1627    3.4971 C   0  0  0  0  0  0  0  0  0  0  0  0
   -0.7264    9.8554    3.5278 O   0  0  0  0  0  0  0  0  0  0  0  0
   -0.0108    9.2540    4.5198 C   0  0  0  0  0  0  0  0  0  0  0  0
    0.8257   10.0649    5.1169 N   0  0  0  0  0  0  0  0  0  0  0  0
   -0.1942    7.8253    4.7359 C   0  0  0  0  0  0  0  0  0  0  0  0
    0.6325    7.1529    5.6515 C   0  0  0  0  0  0  0  0  0  0  0  0
    0.5712    5.7680    5.7745 C   0  0  0  0  0  0  0  0  0  0  0  0
   -0.3177    5.0343    4.9762 C   0  0  0  0  0  0  0  0  0  0  0  0
   -1.1906    5.7021    4.1131 C   0  0  0  0  0  0  0  0  0  0  0  0
   -1.1243    7.0881    3.9866 C   0  0  0  0  0  0  0  0  0  0  0  0
   -0.3608    3.6505    5.0220 O   0  0  0  0  0  0  0  0  0  0  0  0
    0.8911    2.9724    4.7993 C   0  0  0  0  0  0  0  0  0  0  0  0
    0.9303    2.3191    3.4162 C   0  0  0  0  0  0  0  0  0  0  0  0
    0.6350    3.2992    2.2856 C   0  0  0  0  0  0  0  0  0  0  0  0
    1.5315    4.3977    2.3867 O   0  0  0  0  0  0  0  0  0  0  0  0
    1.1582    5.5806    1.7553 C   0  0  0  0  0  0  0  0  0  0  0  0
    1.8417    6.7376    2.1904 C   0  0  0  0  0  0  0  0  0  0  0  0
    1.5298    7.9902    1.6699 C   0  0  0  0  0  0  0  0  0  0  0  0
    0.5212    8.0794    0.7010 C   0  0  0  0  0  0  0  0  0  0  0  0
   -0.1638    6.9133    0.2425 C   0  0  0  0  0  0  0  0  0  0  0  0
    0.1678    5.6510    0.7805 C   0  0  0  0  0  0  0  0  0  0  0  0
   -1.1102    7.3574   -0.7384 C   0  0  0  0  0  0  0  0  0  0  0  0
   -0.9732    8.7301   -0.8401 C   0  0  0  0  0  0  0  0  0  0  0  0
   -0.0028    9.1755    0.0322 N   0  0  0  0  0  0  0  0  0  0  0  0
    0.5191   10.5506    0.1392 C   0  0  1  0  0  0  0  0  0  0  0  0
    0.8495   10.6722    1.1717 H   0  0  0  0  0  0  0  0  0  0  0  0
    1.7097   10.7363   -0.8095 C   0  0  0  0  0  0  0  0  0  0  0  0
   -0.5832   11.6382   -0.1458 C   0  0  0  0  0  0  0  0  0  0  0  0
   -0.8273   12.4281    0.8106 O   0  0  0  0  0  0  0  0  0  0  0  0
   -1.0696   11.6273   -1.3057 O   0  5  0  0  0  0  0  0  0  0  0  0
    1.7739   13.8506    6.5443 H   0  0  0  0  0  0  0  0  0  0  0  0
    1.3377   12.1899    7.0039 H   0  0  0  0  0  0  0  0  0  0  0  0
    0.1001   13.2836    6.3664 H   0  0  0  0  0  0  0  0  0  0  0  0
    2.5294   12.2626    4.7780 H   0  0  0  0  0  0  0  0  0  0  0  0
    1.2588   13.2969    4.1284 H   0  0  0  0  0  0  0  0  0  0  0  0
   -0.6558   11.7833    2.6802 H   0  0  0  0  0  0  0  0  0  0  0  0
    1.3413    7.7299    6.2373 H   0  0  0  0  0  0  0  0  0  0  0  0
    1.2237    5.2524    6.4740 H   0  0  0  0  0  0  0  0  0  0  0  0
   -1.8783    5.1251    3.5029 H   0  0  0  0  0  0  0  0  0  0  0  0
   -1.7489    7.5950    3.2588 H   0  0  0  0  0  0  0  0  0  0  0  0
    0.9902    2.2108    5.5810 H   0  0  0  0  0  0  0  0  0  0  0  0
    1.7192    3.6779    4.8918 H   0  0  0  0  0  0  0  0  0  0  0  0
    1.9235    1.8708    3.2819 H   0  0  0  0  0  0  0  0  0  0  0  0
    0.1936    1.5083    3.3634 H   0  0  0  0  0  0  0  0  0  0  0  0
   -0.3986    3.6498    2.3704 H   0  0  0  0  0  0  0  0  0  0  0  0
    0.7428    2.8010    1.3106 H   0  0  0  0  0  0  0  0  0  0  0  0
    2.5861    6.6326    2.9736 H   0  0  0  0  0  0  0  0  0  0  0  0
    2.0458    8.8742    2.0331 H   0  0  0  0  0  0  0  0  0  0  0  0
   -0.3526    4.7640    0.4335 H   0  0  0  0  0  0  0  0  0  0  0  0
   -1.8105    6.7486   -1.2971 H   0  0  0  0  0  0  0  0  0  0  0  0
   -1.4804    9.4593   -1.4570 H   0  0  0  0  0  0  0  0  0  0  0  0
    2.1514   11.7282   -0.6609 H   0  0  0  0  0  0  0  0  0  0  0  0
    1.3639   10.6663   -1.8443 H   0  0  0  0  0  0  0  0  0  0  0  0
    2.4817    9.9776   -0.6329 H   0  0  0  0  0  0  0  0  0  0  0  0
  1  2  1  0  0  0  0
  1 34  1  0  0  0  0
  1 35  1  0  0  0  0
  1 36  1  0  0  0  0
  2  3  1  0  0  0  0
  2 37  1  0  0  0  0
  2 38  1  0  0  0  0
  3  4  2  0  0  0  0
  3  7  1  0  0  0  0
  4  5  1  0  0  0  0
  4 39  1  0  0  0  0
  5  6  1  0  0  0  0
  6  7  2  0  0  0  0
  6  8  1  0  0  0  0
  8  9  2  0  0  0  0
  8 13  1  0  0  0  0
  9 10  1  0  0  0  0
  9 40  1  0  0  0  0
 10 11  2  0  0  0  0
 10 41  1  0  0  0  0
 11 12  1  0  0  0  0
 11 14  1  0  0  0  0
 12 13  2  0  0  0  0
 12 42  1  0  0  0  0
 13 43  1  0  0  0  0
 14 15  1  0  0  0  0
 15 16  1  0  0  0  0
 15 44  1  0  0  0  0
 15 45  1  0  0  0  0
 16 17  1  0  0  0  0
 16 46  1  0  0  0  0
 16 47  1  0  0  0  0
 17 18  1  0  0  0  0
 17 48  1  0  0  0  0
 17 49  1  0  0  0  0
 18 19  1  0  0  0  0
 19 20  1  0  0  0  0
 19 24  2  0  0  0  0
 20 21  2  0  0  0  0
 20 50  1  0  0  0  0
 21 22  1  0  0  0  0
 21 51  1  0  0  0  0
 22 23  2  0  0  0  0
 22 27  1  0  0  0  0
 23 24  1  0  0  0  0
 23 25  1  0  0  0  0
 24 52  1  0  0  0  0
 25 26  2  0  0  0  0
 25 53  1  0  0  0  0
 26 27  1  0  0  0  0
 26 54  1  0  0  0  0
 27 28  1  0  0  0  0
 28 29  1  0  0  0  0
 28 30  1  0  0  0  0
 28 31  1  0  0  0  0
 30 55  1  0  0  0  0
 30 56  1  0  0  0  0
 30 57  1  0  0  0  0
 31 32  2  0  0  0  0
 31 33  1  0  0  0  0
M  CHG  1  33  -1
M  END
$$$$
