57
-1 1 C25H25N2O5
C                    -1.586750222482    14.255791946292     8.696173344176
C                    -0.889196507030    13.370543789185     9.742584230580
C                    -0.084923110200    12.272363189339     9.118320558661
C                     1.256574266509    12.043090458141     9.156926285182
O                     1.523755565004    10.915934458493     8.406827257125
C                     0.300658953880    10.511960004356     7.939232790342
N                    -0.679234780484    11.283249886189     8.335312476131
C                     0.234654389346     9.327479523378     7.095012514976
C                    -1.011215765214     8.900530269128     6.591763400097
C                    -1.097760946443     7.777079451891     5.784631186888
C                     0.059425357192     7.045191962287     5.455557507045
C                     1.305549754943     7.464378980622     5.948090513527
C                     1.383748361613     8.597533457957     6.759955915255
O                    -0.132316237063     5.953871631676     4.668203699551
C                     1.011732729015     5.169367475212     4.290671891958
C                     0.523510331298     4.043599401553     3.391812026966
C                     0.031101358662     4.529524720375     2.033246637297
O                     1.140689563932     5.109615906729     1.366671638396
C                     0.928930402322     5.625757477118     0.090419044166
C                     2.073967950806     6.193446014387    -0.513271403159
C                     2.008600118750     6.739098993466    -1.792866074273
C                     0.781471711750     6.715286712208    -2.468520891550
C                    -0.380016813191     6.138501142429    -1.868962079965
C                    -0.296778968362     5.591987832332    -0.568391766156
C                    -1.434192978278     6.267671251637    -2.829418934294
C                    -0.897733500715     6.898724743429    -3.939630049935
N                     0.433396632965     7.182738512816    -3.725665886264
C                     1.404457473623     7.743630657831    -4.686487280190
H                     2.120345856482     8.319188938657    -4.095815729978
C                     2.141131037716     6.603516060814    -5.407101400752
C                     0.831947317032     8.738103271975    -5.768620729292
O                     1.684151389519     9.584054485997    -6.139031298617
O                    -0.342942123342     8.539779168312    -6.181657586583
H                    -2.197713602014    15.024543836013     9.181655519419
H                    -2.235174411306    13.651186858493     8.056194225664
H                    -0.852329831451    14.754511463001     8.055130097919
H                    -1.644688840425    12.922874939925    10.399739705794
H                    -0.234502277357    13.978349986351    10.376985165112
H                     2.102333156365    12.528165532063     9.620322646275
H                    -1.901872986557     9.467888546900     6.843012929647
H                    -2.051133795412     7.442933058140     5.386079830766
H                     2.212410864028     6.925538374948     5.700825524328
H                     2.350916109033     8.918940444831     7.133990422413
H                     1.487408710783     4.766659268055     5.194727541602
H                     1.731632931310     5.796366718138     3.754118152058
H                     1.352923159371     3.343928723253     3.238330193756
H                    -0.282067566733     3.499969916751     3.898495994077
H                    -0.774477042087     5.265738683477     2.156523056489
H                    -0.365815898234     3.683139454038     1.454447347144
H                     3.006096419725     6.191466325400     0.044996271605
H                     2.895293289484     7.170443059159    -2.248249798087
H                    -1.179734348786     5.158702241913    -0.109904772550
H                    -2.464518121043     5.952012309337    -2.718870280081
H                    -1.332360587114     7.214958276929    -4.878093193407
H                     2.916460584290     7.028379351416    -6.051287308752
H                     1.436956257004     6.043881833529    -6.032010515406
H                     2.604839507528     5.907022102103    -4.697478068601
