57
-1 1 C25H25N2O5
C                     1.151182597676    12.987964694648     6.278483691453
C                     1.460644763712    12.501103319549     4.852592789221
C                     0.664641628795    11.292500094335     4.468705145278
C                    -0.284321210763    11.162680742898     3.497109507548
O                    -0.726366996523     9.855432461404     3.527790551334
C                    -0.010774402558     9.254029620701     4.519769899424
N                     0.825650716779    10.064863915342     5.116943862782
C                    -0.194245861903     7.825253575524     4.735946822893
C                     0.632492716219     7.152900876959     5.651547568785
C                     0.571176894609     5.768007068939     5.774533967115
C                    -0.317717002433     5.034287721294     4.976175046382
C                    -1.190565558517     5.702079547315     4.113115252676
C                    -1.124309216758     7.088116251107     3.986597845323
O                    -0.360759059641     3.650536909590     5.021998792392
C                     0.891080758907     2.972374564933     4.799295764513
C                     0.930327107360     2.319088512860     3.416151919070
C                     0.635034978791     3.299162855406     2.285624774835
O                     1.531533649776     4.397744640370     2.386689567996
C                     1.158193158530     5.580575099180     1.755282056651
C                     1.841665182650     6.737580942802     2.190408262995
C                     1.529795620146     7.990200498679     1.669867774747
C                     0.521215644284     8.079389269332     0.700950107084
C                    -0.163770292335     6.913340665614     0.242499060486
C                     0.167793150409     5.651001584906     0.780480398789
C                    -1.110178650619     7.357384005384    -0.738366798872
C                    -0.973236314630     8.730104985982    -0.840138186487
N                    -0.002753123815     9.175502913577     0.032225680314
C                     0.519108936890    10.550578933849     0.139172791473
H                     0.849515190785    10.672169659037     1.171738100125
C                     1.709724624364    10.736270439763    -0.809468932769
C                    -0.583170246288    11.638240602019    -0.145765609254
O                    -0.827300744239    12.428115684917     0.810590047608
O                    -1.069576497235    11.627262132854    -1.305742010315
H                     1.773871745139    13.850579619657     6.544291626917
H                     1.337718083030    12.189930466469     7.003875604881
H                     0.100112020177    13.283566338968     6.366446744808
H                     2.529404243084    12.262619285314     4.777972473558
H                     1.258805822682    13.296876770390     4.128407431585
H                    -0.655801982787    11.783253181519     2.680157495718
H                     1.341336739675     7.729924073765     6.237275593120
H                     1.223687008846     5.252381541582     6.473987651007
H                    -1.878250775170     5.125122005525     3.502905712539
H                    -1.748884669306     7.595033537742     3.258771573848
H                     0.990241932305     2.210765821417     5.580996197237
H                     1.719157176394     3.677905790881     4.891788987550
H                     1.923450610664     1.870846411219     3.281881700449
H                     0.193582136095     1.508277724270     3.363435089548
H                    -0.398637686092     3.649787298320     2.370403816540
H                     0.742816004441     2.800988131927     1.310571858343
H                     2.586120731551     6.632594845967     2.973634938046
H                     2.045830989961     8.874199003804     2.033104272752
H                    -0.352617006784     4.764012948077     0.433512903782
H                    -1.810530247695     6.748638402250    -1.297057286228
H                    -1.480446744272     9.459341647017    -1.457024863501
H                     2.151417999270    11.728183137983    -0.660927958382
H                     1.363936003888    10.666319044045    -1.844283413902
H                     2.481719666581     9.977613891236    -0.632905040518
