
  -OEChem-12102412483D

 57 60  0     1  0  0  0  0  0999 V2000
    1.5492   12.4313   11.2815 C   0  0  0  0  0  0  0  0  0  0  0  0
    0.8635   13.1363   10.0993 C   0  0  0  0  0  0  0  0  0  0  0  0
    0.0364   12.1997    9.2740 C   0  0  0  0  0  0  0  0  0  0  0  0
   -1.3038   12.1999    9.0340 C   0  0  0  0  0  0  0  0  0  0  0  0
   -1.5962   11.1255    8.2189 O   0  0  0  0  0  0  0  0  0  0  0  0
   -0.3889   10.5146    8.0024 C   0  0  0  0  0  0  0  0  0  0  0  0
    0.6039   11.1136    8.6089 N   0  0  0  0  0  0  0  0  0  0  0  0
   -0.3526    9.3275    7.1600 C   0  0  0  0  0  0  0  0  0  0  0  0
    0.8735    8.6952    6.9039 C   0  0  0  0  0  0  0  0  0  0  0  0
    0.9417    7.5560    6.1028 C   0  0  0  0  0  0  0  0  0  0  0  0
   -0.2327    7.0272    5.5403 C   0  0  0  0  0  0  0  0  0  0  0  0
   -1.4646    7.6597    5.7886 C   0  0  0  0  0  0  0  0  0  0  0  0
   -1.5234    8.7935    6.5866 C   0  0  0  0  0  0  0  0  0  0  0  0
   -0.2818    5.9169    4.7582 O   0  0  0  0  0  0  0  0  0  0  0  0
    0.9460    5.2294    4.4610 C   0  0  0  0  0  0  0  0  0  0  0  0
    0.6087    4.0537    3.5570 C   0  0  0  0  0  0  0  0  0  0  0  0
    0.1518    4.4769    2.1652 C   0  0  0  0  0  0  0  0  0  0  0  0
    1.2421    5.1450    1.5523 O   0  0  0  0  0  0  0  0  0  0  0  0
    1.0787    5.6039    0.2456 C   0  0  0  0  0  0  0  0  0  0  0  0
   -0.1274    5.4676   -0.4753 C   0  0  0  0  0  0  0  0  0  0  0  0
   -0.2220    5.9422   -1.7888 C   0  0  0  0  0  0  0  0  0  0  0  0
    0.8945    6.5464   -2.3694 C   0  0  0  0  0  0  0  0  0  0  0  0
    2.1177    6.6999   -1.6380 C   0  0  0  0  0  0  0  0  0  0  0  0
    2.1957    6.2144   -0.3208 C   0  0  0  0  0  0  0  0  0  0  0  0
    3.0302    7.3667   -2.5195 C   0  0  0  0  0  0  0  0  0  0  0  0
    2.3597    7.5822   -3.7109 C   0  0  0  0  0  0  0  0  0  0  0  0
    1.0779    7.0807   -3.6349 N   0  0  0  0  0  0  0  0  0  0  0  0
   -0.0001    7.2026   -4.6359 C   0  0  1  0  0  0  0  0  0  0  0  0
   -0.6291    6.3181   -4.5150 H   0  0  0  0  0  0  0  0  0  0  0  0
   -0.8353    8.4610   -4.3520 C   0  0  0  0  0  0  0  0  0  0  0  0
    0.4431    7.2175   -6.1495 C   0  0  0  0  0  0  0  0  0  0  0  0
   -0.4460    6.7623   -6.9123 O   0  0  0  0  0  0  0  0  0  0  0  0
    1.5625    7.7276   -6.4263 O   0  5  0  0  0  0  0  0  0  0  0  0
    2.1784   13.1321   11.8410 H   0  0  0  0  0  0  0  0  0  0  0  0
    2.1782   11.6117   10.9231 H   0  0  0  0  0  0  0  0  0  0  0  0
    0.8074   12.0111   11.9690 H   0  0  0  0  0  0  0  0  0  0  0  0
    1.6274   13.5891    9.4558 H   0  0  0  0  0  0  0  0  0  0  0  0
    0.2278   13.9520   10.4614 H   0  0  0  0  0  0  0  0  0  0  0  0
   -2.1327   12.8279    9.3237 H   0  0  0  0  0  0  0  0  0  0  0  0
    1.7779    9.1098    7.3384 H   0  0  0  0  0  0  0  0  0  0  0  0
    1.9045    7.0950    5.9171 H   0  0  0  0  0  0  0  0  0  0  0  0
   -2.3602    7.2423    5.3380 H   0  0  0  0  0  0  0  0  0  0  0  0
   -2.4790    9.2751    6.7688 H   0  0  0  0  0  0  0  0  0  0  0  0
    1.4005    4.8815    5.3980 H   0  0  0  0  0  0  0  0  0  0  0  0
    1.6393    5.9094    3.9550 H   0  0  0  0  0  0  0  0  0  0  0  0
    1.5035    3.4285    3.4607 H   0  0  0  0  0  0  0  0  0  0  0  0
   -0.1731    3.4476    4.0290 H   0  0  0  0  0  0  0  0  0  0  0  0
   -0.7222    5.1384    2.2351 H   0  0  0  0  0  0  0  0  0  0  0  0
   -0.1359    3.5904    1.5820 H   0  0  0  0  0  0  0  0  0  0  0  0
   -0.9951    4.9988   -0.0252 H   0  0  0  0  0  0  0  0  0  0  0  0
   -1.1540    5.8358   -2.3362 H   0  0  0  0  0  0  0  0  0  0  0  0
    3.1065    6.3020    0.2667 H   0  0  0  0  0  0  0  0  0  0  0  0
    4.0574    7.6414   -2.3137 H   0  0  0  0  0  0  0  0  0  0  0  0
    2.6696    8.0210   -4.6495 H   0  0  0  0  0  0  0  0  0  0  0  0
   -1.6810    8.4943   -5.0450 H   0  0  0  0  0  0  0  0  0  0  0  0
   -0.2230    9.3558   -4.5067 H   0  0  0  0  0  0  0  0  0  0  0  0
   -1.2128    8.4730   -3.3219 H   0  0  0  0  0  0  0  0  0  0  0  0
  1  2  1  0  0  0  0
  1 34  1  0  0  0  0
  1 35  1  0  0  0  0
  1 36  1  0  0  0  0
  2  3  1  0  0  0  0
  2 37  1  0  0  0  0
  2 38  1  0  0  0  0
  3  4  2  0  0  0  0
  3  7  1  0  0  0  0
  4  5  1  0  0  0  0
  4 39  1  0  0  0  0
  5  6  1  0  0  0  0
  6  7  2  0  0  0  0
  6  8  1  0  0  0  0
  8  9  2  0  0  0  0
  8 13  1  0  0  0  0
  9 10  1  0  0  0  0
  9 40  1  0  0  0  0
 10 11  2  0  0  0  0
 10 41  1  0  0  0  0
 11 12  1  0  0  0  0
 11 14  1  0  0  0  0
 12 13  2  0  0  0  0
 12 42  1  0  0  0  0
 13 43  1  0  0  0  0
 14 15  1  0  0  0  0
 15 16  1  0  0  0  0
 15 44  1  0  0  0  0
 15 45  1  0  0  0  0
 16 17  1  0  0  0  0
 16 46  1  0  0  0  0
 16 47  1  0  0  0  0
 17 18  1  0  0  0  0
 17 48  1  0  0  0  0
 17 49  1  0  0  0  0
 18 19  1  0  0  0  0
 19 20  1  0  0  0  0
 19 24  2  0  0  0  0
 20 21  2  0  0  0  0
 20 50  1  0  0  0  0
 21 22  1  0  0  0  0
 21 51  1  0  0  0  0
 22 23  2  0  0  0  0
 22 27  1  0  0  0  0
 23 24  1  0  0  0  0
 23 25  1  0  0  0  0
 24 52  1  0  0  0  0
 25 26  2  0  0  0  0
 25 53  1  0  0  0  0
 26 27  1  0  0  0  0
 26 54  1  0  0  0  0
 27 28  1  0  0  0  0
 28 29  1  0  0  0  0
 28 30  1  0  0  0  0
 28 31  1  0  0  0  0
 30 55  1  0  0  0  0
 30 56  1  0  0  0  0
 30 57  1  0  0  0  0
 31 32  2  0  0  0  0
 31 33  1  0  0  0  0
M  CHG  1  33  -1
M  END
$$$$
