
  -OEChem-12122420533D

 57 60  0     1  0  0  0  0  0999 V2000
    0.4397    9.9503   12.6850 C   0  0  0  0  0  0  0  0  0  0  0  0
   -0.5973    8.9455   13.2140 C   0  0  0  0  0  0  0  0  0  0  0  0
   -0.4461    7.5881   12.5998 C   0  0  0  0  0  0  0  0  0  0  0  0
   -0.1441    6.3951   13.1826 C   0  0  0  0  0  0  0  0  0  0  0  0
   -0.1025    5.4308   12.1960 O   0  0  0  0  0  0  0  0  0  0  0  0
   -0.3873    6.1063   11.0384 C   0  0  0  0  0  0  0  0  0  0  0  0
   -0.5964    7.3836   11.2288 N   0  0  0  0  0  0  0  0  0  0  0  0
   -0.4245    5.3589    9.7890 C   0  0  0  0  0  0  0  0  0  0  0  0
   -0.7123    6.0266    8.5891 C   0  0  0  0  0  0  0  0  0  0  0  0
   -0.7563    5.3397    7.3762 C   0  0  0  0  0  0  0  0  0  0  0  0
   -0.5098    3.9563    7.3486 C   0  0  0  0  0  0  0  0  0  0  0  0
   -0.2197    3.2809    8.5482 C   0  0  0  0  0  0  0  0  0  0  0  0
   -0.1777    3.9724    9.7508 C   0  0  0  0  0  0  0  0  0  0  0  0
   -0.5288    3.1889    6.2257 O   0  0  0  0  0  0  0  0  0  0  0  0
   -0.8244    3.8206    4.9706 C   0  0  0  0  0  0  0  0  0  0  0  0
   -0.8009    2.7494    3.8924 C   0  0  0  0  0  0  0  0  0  0  0  0
   -1.1029    3.3413    2.5198 C   0  0  0  0  0  0  0  0  0  0  0  0
   -1.0860    2.2799    1.5859 O   0  0  0  0  0  0  0  0  0  0  0  0
   -1.3702    2.5947    0.2582 C   0  0  0  0  0  0  0  0  0  0  0  0
   -1.3815    1.4871   -0.6196 C   0  0  0  0  0  0  0  0  0  0  0  0
   -1.6527    1.6552   -1.9751 C   0  0  0  0  0  0  0  0  0  0  0  0
   -1.9117    2.9473   -2.4512 C   0  0  0  0  0  0  0  0  0  0  0  0
   -1.9095    4.0722   -1.5706 C   0  0  0  0  0  0  0  0  0  0  0  0
   -1.6291    3.8843   -0.1982 C   0  0  0  0  0  0  0  0  0  0  0  0
   -2.2253    5.2135   -2.3754 C   0  0  0  0  0  0  0  0  0  0  0  0
   -2.3994    4.7604   -3.6727 C   0  0  0  0  0  0  0  0  0  0  0  0
   -2.2003    3.3983   -3.7293 N   0  0  0  0  0  0  0  0  0  0  0  0
   -2.4076    2.5019   -4.8844 C   0  0  1  0  0  0  0  0  0  0  0  0
   -1.6901    1.6864   -4.7696 H   0  0  0  0  0  0  0  0  0  0  0  0
   -3.8335    1.9294   -4.8489 C   0  0  0  0  0  0  0  0  0  0  0  0
   -2.1434    3.1132   -6.3149 C   0  0  0  0  0  0  0  0  0  0  0  0
   -1.8399    2.2310   -7.1569 O   0  0  0  0  0  0  0  0  0  0  0  0
   -2.3231    4.3513   -6.4702 O   0  5  0  0  0  0  0  0  0  0  0  0
    0.2791   10.9416   13.1223 H   0  0  0  0  0  0  0  0  0  0  0  0
    0.3674   10.0362   11.5973 H   0  0  0  0  0  0  0  0  0  0  0  0
    1.4569    9.6271   12.9305 H   0  0  0  0  0  0  0  0  0  0  0  0
   -1.6057    9.3182   12.9968 H   0  0  0  0  0  0  0  0  0  0  0  0
   -0.5181    8.8571   14.3031 H   0  0  0  0  0  0  0  0  0  0  0  0
    0.0546    6.0651   14.1910 H   0  0  0  0  0  0  0  0  0  0  0  0
   -0.9025    7.0951    8.6162 H   0  0  0  0  0  0  0  0  0  0  0  0
   -0.9811    5.8849    6.4672 H   0  0  0  0  0  0  0  0  0  0  0  0
   -0.0319    2.2121    8.5069 H   0  0  0  0  0  0  0  0  0  0  0  0
    0.0465    3.4411   10.6704 H   0  0  0  0  0  0  0  0  0  0  0  0
   -0.0762    4.5988    4.7686 H   0  0  0  0  0  0  0  0  0  0  0  0
   -1.8116    4.2984    5.0257 H   0  0  0  0  0  0  0  0  0  0  0  0
    0.1817    2.2674    3.8744 H   0  0  0  0  0  0  0  0  0  0  0  0
   -1.5419    1.9784    4.1261 H   0  0  0  0  0  0  0  0  0  0  0  0
   -0.3514    4.1010    2.2538 H   0  0  0  0  0  0  0  0  0  0  0  0
   -2.0870    3.8354    2.5212 H   0  0  0  0  0  0  0  0  0  0  0  0
   -1.1756    0.5025   -0.2094 H   0  0  0  0  0  0  0  0  0  0  0  0
   -1.6624    0.7964   -2.6400 H   0  0  0  0  0  0  0  0  0  0  0  0
   -1.6224    4.7401    0.4692 H   0  0  0  0  0  0  0  0  0  0  0  0
   -2.3011    6.2444   -2.0512 H   0  0  0  0  0  0  0  0  0  0  0  0
   -2.6167    5.2736   -4.5994 H   0  0  0  0  0  0  0  0  0  0  0  0
   -3.9474    1.2042   -5.6594 H   0  0  0  0  0  0  0  0  0  0  0  0
   -4.5611    2.7348   -4.9967 H   0  0  0  0  0  0  0  0  0  0  0  0
   -4.0505    1.4387   -3.8919 H   0  0  0  0  0  0  0  0  0  0  0  0
  1  2  1  0  0  0  0
  1 34  1  0  0  0  0
  1 35  1  0  0  0  0
  1 36  1  0  0  0  0
  2  3  1  0  0  0  0
  2 37  1  0  0  0  0
  2 38  1  0  0  0  0
  3  4  2  0  0  0  0
  3  7  1  0  0  0  0
  4  5  1  0  0  0  0
  4 39  1  0  0  0  0
  5  6  1  0  0  0  0
  6  7  2  0  0  0  0
  6  8  1  0  0  0  0
  8  9  2  0  0  0  0
  8 13  1  0  0  0  0
  9 10  1  0  0  0  0
  9 40  1  0  0  0  0
 10 11  2  0  0  0  0
 10 41  1  0  0  0  0
 11 12  1  0  0  0  0
 11 14  1  0  0  0  0
 12 13  2  0  0  0  0
 12 42  1  0  0  0  0
 13 43  1  0  0  0  0
 14 15  1  0  0  0  0
 15 16  1  0  0  0  0
 15 44  1  0  0  0  0
 15 45  1  0  0  0  0
 16 17  1  0  0  0  0
 16 46  1  0  0  0  0
 16 47  1  0  0  0  0
 17 18  1  0  0  0  0
 17 48  1  0  0  0  0
 17 49  1  0  0  0  0
 18 19  1  0  0  0  0
 19 20  1  0  0  0  0
 19 24  2  0  0  0  0
 20 21  2  0  0  0  0
 20 50  1  0  0  0  0
 21 22  1  0  0  0  0
 21 51  1  0  0  0  0
 22 23  2  0  0  0  0
 22 27  1  0  0  0  0
 23 24  1  0  0  0  0
 23 25  1  0  0  0  0
 24 52  1  0  0  0  0
 25 26  2  0  0  0  0
 25 53  1  0  0  0  0
 26 27  1  0  0  0  0
 26 54  1  0  0  0  0
 27 28  1  0  0  0  0
 28 29  1  0  0  0  0
 28 30  1  0  0  0  0
 28 31  1  0  0  0  0
 30 55  1  0  0  0  0
 30 56  1  0  0  0  0
 30 57  1  0  0  0  0
 31 32  2  0  0  0  0
 31 33  1  0  0  0  0
M  CHG  1  33  -1
M  END
$$$$
