57
-1 1 C25H25N2O5
C                    -1.503353904954    14.438389019673     8.482788137417
C                    -0.845833445634    13.556243830726     9.557274510149
C                    -0.076959485314    12.413971249044     8.968601360630
C                     1.253976853088    12.133942051759     9.030694353059
O                     1.486128795155    10.978991834054     8.311945005361
C                     0.254058359850    10.610844545075     7.838496917860
N                    -0.699773195801    11.429437265555     8.202126890871
C                     0.151966719479     9.407670979673     7.025002052498
C                    -1.100960044936     9.023945348625     6.504776906242
C                    -1.221786077303     7.882475438811     5.727927901392
C                    -0.093167458304     7.087979167751     5.448039110697
C                     1.159730137863     7.463187342337     5.958738770822
C                     1.272790076613     8.615548073695     6.738668497222
O                    -0.318055935145     5.984659331129     4.687218989394
C                     0.791581938699     5.121815171844     4.382250072345
C                     0.273165451356     3.999571667121     3.496085306224
C                    -0.109768948635     4.470315680244     2.097210027744
O                     1.076433871870     4.940298403155     1.478093651969
C                     0.993402168023     5.403117177907     0.165331391566
C                    -0.219054959564     5.468598693102    -0.554713196732
C                    -0.231737077717     5.936218010047    -1.873945489928
C                     0.971796846781     6.331206701766    -2.460689523924
C                     2.204290719107     6.279287569846    -1.730614693813
C                     2.198613160938     5.803801112896    -0.407501018071
C                     3.217203624428     6.767263688489    -2.619687198747
C                     2.592202480565     7.080986889970    -3.814032326115
N                     1.243149733896     6.810158163465    -3.732437528899
C                     0.201544178741     7.105348547132    -4.735411105052
H                    -0.575850407813     6.350990388669    -4.598120782129
C                    -0.392112624162     8.498869610594    -4.476391465430
C                     0.638126241551     7.010965653444    -6.247580181567
O                    -0.311877050362     6.680937904132    -7.001287489104
O                     1.823334658701     7.333355756323    -6.533476535923
H                    -2.089452348045    15.241098009915     8.943315786517
H                    -2.168786050416    13.840941910915     7.853612573835
H                    -0.746802407496    14.893339437312     7.834935444105
H                    -1.621889346139    13.153189631634    10.219352566405
H                    -0.174544414429    14.156453789577    10.181453450213
H                     2.112217948531    12.597070368720     9.493589408705
H                    -1.969721188618     9.638262790904     6.719690599040
H                    -2.180798505393     7.580276875587     5.317508619174
H                     2.045325429929     6.875014963797     5.749944938380
H                     2.245229630284     8.902462157538     7.126801206041
H                     1.203813875118     4.722297442884     5.318234047045
H                     1.569724437863     5.686537792558     3.858228995079
H                     1.058496119122     3.240240830410     3.409762077793
H                    -0.593817805069     3.530955258600     3.975530469094
H                    -0.862732264764     5.267844978112     2.155612310759
H                    -0.539502093063     3.635196866602     1.525797876823
H                    -1.154033793903     5.162145725025    -0.099532639924
H                    -1.168636412573     5.985949602755    -2.420982907717
H                     3.111530115813     5.739122983958     0.179696864760
H                     4.276813529284     6.862165932568    -2.416792104673
H                     2.971788617591     7.448526064373    -4.757796115996
H                    -1.220151713488     8.671511590617    -5.170156065675
H                     0.371171303900     9.265284394456    -4.648159255285
H                    -0.758555105255     8.598171418127    -3.447003167415
