
  -OEChem-12102412483D

 57 60  0     1  0  0  0  0  0999 V2000
   -1.5034   14.4384    8.4828 C   0  0  0  0  0  0  0  0  0  0  0  0
   -0.8458   13.5562    9.5573 C   0  0  0  0  0  0  0  0  0  0  0  0
   -0.0770   12.4140    8.9686 C   0  0  0  0  0  0  0  0  0  0  0  0
    1.2540   12.1339    9.0307 C   0  0  0  0  0  0  0  0  0  0  0  0
    1.4861   10.9790    8.3119 O   0  0  0  0  0  0  0  0  0  0  0  0
    0.2541   10.6108    7.8385 C   0  0  0  0  0  0  0  0  0  0  0  0
   -0.6998   11.4294    8.2021 N   0  0  0  0  0  0  0  0  0  0  0  0
    0.1520    9.4077    7.0250 C   0  0  0  0  0  0  0  0  0  0  0  0
   -1.1010    9.0239    6.5048 C   0  0  0  0  0  0  0  0  0  0  0  0
   -1.2218    7.8825    5.7279 C   0  0  0  0  0  0  0  0  0  0  0  0
   -0.0932    7.0880    5.4480 C   0  0  0  0  0  0  0  0  0  0  0  0
    1.1597    7.4632    5.9587 C   0  0  0  0  0  0  0  0  0  0  0  0
    1.2728    8.6155    6.7387 C   0  0  0  0  0  0  0  0  0  0  0  0
   -0.3181    5.9847    4.6872 O   0  0  0  0  0  0  0  0  0  0  0  0
    0.7916    5.1218    4.3823 C   0  0  0  0  0  0  0  0  0  0  0  0
    0.2732    3.9996    3.4961 C   0  0  0  0  0  0  0  0  0  0  0  0
   -0.1098    4.4703    2.0972 C   0  0  0  0  0  0  0  0  0  0  0  0
    1.0764    4.9403    1.4781 O   0  0  0  0  0  0  0  0  0  0  0  0
    0.9934    5.4031    0.1653 C   0  0  0  0  0  0  0  0  0  0  0  0
   -0.2191    5.4686   -0.5547 C   0  0  0  0  0  0  0  0  0  0  0  0
   -0.2317    5.9362   -1.8739 C   0  0  0  0  0  0  0  0  0  0  0  0
    0.9718    6.3312   -2.4607 C   0  0  0  0  0  0  0  0  0  0  0  0
    2.2043    6.2793   -1.7306 C   0  0  0  0  0  0  0  0  0  0  0  0
    2.1986    5.8038   -0.4075 C   0  0  0  0  0  0  0  0  0  0  0  0
    3.2172    6.7673   -2.6197 C   0  0  0  0  0  0  0  0  0  0  0  0
    2.5922    7.0810   -3.8140 C   0  0  0  0  0  0  0  0  0  0  0  0
    1.2431    6.8102   -3.7324 N   0  0  0  0  0  0  0  0  0  0  0  0
    0.2015    7.1053   -4.7354 C   0  0  1  0  0  0  0  0  0  0  0  0
   -0.5759    6.3510   -4.5981 H   0  0  0  0  0  0  0  0  0  0  0  0
   -0.3921    8.4989   -4.4764 C   0  0  0  0  0  0  0  0  0  0  0  0
    0.6381    7.0110   -6.2476 C   0  0  0  0  0  0  0  0  0  0  0  0
   -0.3119    6.6809   -7.0013 O   0  0  0  0  0  0  0  0  0  0  0  0
    1.8233    7.3334   -6.5335 O   0  5  0  0  0  0  0  0  0  0  0  0
   -2.0895   15.2411    8.9433 H   0  0  0  0  0  0  0  0  0  0  0  0
   -2.1688   13.8409    7.8536 H   0  0  0  0  0  0  0  0  0  0  0  0
   -0.7468   14.8933    7.8349 H   0  0  0  0  0  0  0  0  0  0  0  0
   -1.6219   13.1532   10.2194 H   0  0  0  0  0  0  0  0  0  0  0  0
   -0.1745   14.1565   10.1815 H   0  0  0  0  0  0  0  0  0  0  0  0
    2.1122   12.5971    9.4936 H   0  0  0  0  0  0  0  0  0  0  0  0
   -1.9697    9.6383    6.7197 H   0  0  0  0  0  0  0  0  0  0  0  0
   -2.1808    7.5803    5.3175 H   0  0  0  0  0  0  0  0  0  0  0  0
    2.0453    6.8750    5.7499 H   0  0  0  0  0  0  0  0  0  0  0  0
    2.2452    8.9025    7.1268 H   0  0  0  0  0  0  0  0  0  0  0  0
    1.2038    4.7223    5.3182 H   0  0  0  0  0  0  0  0  0  0  0  0
    1.5697    5.6865    3.8582 H   0  0  0  0  0  0  0  0  0  0  0  0
    1.0585    3.2402    3.4098 H   0  0  0  0  0  0  0  0  0  0  0  0
   -0.5938    3.5310    3.9755 H   0  0  0  0  0  0  0  0  0  0  0  0
   -0.8627    5.2678    2.1556 H   0  0  0  0  0  0  0  0  0  0  0  0
   -0.5395    3.6352    1.5258 H   0  0  0  0  0  0  0  0  0  0  0  0
   -1.1540    5.1621   -0.0995 H   0  0  0  0  0  0  0  0  0  0  0  0
   -1.1686    5.9859   -2.4210 H   0  0  0  0  0  0  0  0  0  0  0  0
    3.1115    5.7391    0.1797 H   0  0  0  0  0  0  0  0  0  0  0  0
    4.2768    6.8622   -2.4168 H   0  0  0  0  0  0  0  0  0  0  0  0
    2.9718    7.4485   -4.7578 H   0  0  0  0  0  0  0  0  0  0  0  0
   -1.2202    8.6715   -5.1702 H   0  0  0  0  0  0  0  0  0  0  0  0
    0.3712    9.2653   -4.6482 H   0  0  0  0  0  0  0  0  0  0  0  0
   -0.7586    8.5982   -3.4470 H   0  0  0  0  0  0  0  0  0  0  0  0
  1  2  1  0  0  0  0
  1 34  1  0  0  0  0
  1 35  1  0  0  0  0
  1 36  1  0  0  0  0
  2  3  1  0  0  0  0
  2 37  1  0  0  0  0
  2 38  1  0  0  0  0
  3  4  2  0  0  0  0
  3  7  1  0  0  0  0
  4  5  1  0  0  0  0
  4 39  1  0  0  0  0
  5  6  1  0  0  0  0
  6  7  2  0  0  0  0
  6  8  1  0  0  0  0
  8  9  2  0  0  0  0
  8 13  1  0  0  0  0
  9 10  1  0  0  0  0
  9 40  1  0  0  0  0
 10 11  2  0  0  0  0
 10 41  1  0  0  0  0
 11 12  1  0  0  0  0
 11 14  1  0  0  0  0
 12 13  2  0  0  0  0
 12 42  1  0  0  0  0
 13 43  1  0  0  0  0
 14 15  1  0  0  0  0
 15 16  1  0  0  0  0
 15 44  1  0  0  0  0
 15 45  1  0  0  0  0
 16 17  1  0  0  0  0
 16 46  1  0  0  0  0
 16 47  1  0  0  0  0
 17 18  1  0  0  0  0
 17 48  1  0  0  0  0
 17 49  1  0  0  0  0
 18 19  1  0  0  0  0
 19 20  1  0  0  0  0
 19 24  2  0  0  0  0
 20 21  2  0  0  0  0
 20 50  1  0  0  0  0
 21 22  1  0  0  0  0
 21 51  1  0  0  0  0
 22 23  2  0  0  0  0
 22 27  1  0  0  0  0
 23 24  1  0  0  0  0
 23 25  1  0  0  0  0
 24 52  1  0  0  0  0
 25 26  2  0  0  0  0
 25 53  1  0  0  0  0
 26 27  1  0  0  0  0
 26 54  1  0  0  0  0
 27 28  1  0  0  0  0
 28 29  1  0  0  0  0
 28 30  1  0  0  0  0
 28 31  1  0  0  0  0
 30 55  1  0  0  0  0
 30 56  1  0  0  0  0
 30 57  1  0  0  0  0
 31 32  2  0  0  0  0
 31 33  1  0  0  0  0
M  CHG  1  33  -1
M  END
$$$$
