57
-1 1 C25H25N2O5
C                     0.758359971159    13.345922750520     6.262555044654
C                     0.055741119616    12.966119534419     4.948026856397
C                     0.684779308793    11.783682899873     4.277594425511
C                     1.308162085869    11.699179998712     3.065752678101
O                     1.723327844246    10.404362449737     2.904796867678
C                     1.317056205378     9.746672235659     4.020620293938
N                     0.702204950296    10.522943193783     4.881665965096
C                     1.559756660128     8.310925889430     4.062766634049
C                     1.149005657883     7.556681006641     5.171440706855
C                     1.287117586635     6.169110789626     5.172414387631
C                     1.838582365557     5.529624081092     4.053211847375
C                     2.278711979471     6.279668873777     2.959317921609
C                     2.135576301578     7.663415605524     2.952948347818
O                     1.961725114586     4.156630404894     3.967001264897
C                     0.863152701350     3.372178689891     4.451652970592
C                     0.628958235793     2.220187043762     3.479692338172
C                     0.318328879458     2.709439543129     2.063918351690
O                    -0.876232633763     3.500533516939     2.060006430327
C                    -0.746131363167     4.845256720882     1.699598924274
C                    -0.095226957799     5.216901013956     0.499701373272
C                     0.028001607898     6.557329288654     0.138728023320
C                    -0.542953196327     7.521724570832     0.976798571567
C                    -1.208613284873     7.157805063801     2.188531123259
C                    -1.298415996342     5.797783177362     2.544701512678
C                    -1.618284358142     8.381102137836     2.811843255177
C                    -1.210421255856     9.406117971562     1.981011337869
N                    -0.575712477773     8.901353838205     0.865555150011
C                    -0.051154248596     9.685673126610    -0.265003601979
H                    -0.084758123329     9.010930515592    -1.125963932728
C                    -0.936926746235    10.894641018424    -0.554441834658
C                     1.470770040461    10.053612533614    -0.047098025900
O                     1.739840639184    11.281462320279     0.028143131051
O                     2.232763268263     9.051733216556     0.014182526049
H                     0.254004738324    14.188046409902     6.751864324736
H                     1.800261214665    13.628920801294     6.077051227314
H                     0.760061387018    12.495074784596     6.950260444125
H                     0.067251300751    13.815847962453     4.256093251635
H                    -0.997857691967    12.739763072370     5.157314956229
H                     1.503685058760    12.347637795581     2.223955589851
H                     0.698161591898     8.066435085299     6.017947789786
H                     0.956287191914     5.588168162432     6.028777967622
H                     2.671271911837     5.764972586893     2.088308108162
H                     2.401772536695     8.228023034943     2.060578888942
H                    -0.036217057635     3.990543776905     4.512546281242
H                     1.094589296372     2.992402123154     5.456449149478
H                     1.518120187551     1.577149349765     3.442267105464
H                    -0.204307748514     1.612442368738     3.854351031018
H                     0.163074831770     1.851306579758     1.397226351708
H                     1.163297559570     3.290306180476     1.686827930808
H                     0.328991572707     4.446818375845    -0.139028379013
H                     0.596976479714     6.851134905521    -0.736542037097
H                    -1.773115720241     5.484365300548     3.470727541755
H                    -2.101579814397     8.501552449092     3.772467678761
H                    -1.306614829914    10.473695586552     2.117570665977
H                    -0.597859009716    11.366358855200    -1.480199285133
H                    -0.840932343895    11.649690732125     0.229219458928
H                    -1.989875114358    10.604019127452    -0.660853667193
