
  -OEChem-12122420533D

 57 60  0     1  0  0  0  0  0999 V2000
    0.7584   13.3459    6.2626 C   0  0  0  0  0  0  0  0  0  0  0  0
    0.0557   12.9661    4.9480 C   0  0  0  0  0  0  0  0  0  0  0  0
    0.6848   11.7837    4.2776 C   0  0  0  0  0  0  0  0  0  0  0  0
    1.3082   11.6992    3.0658 C   0  0  0  0  0  0  0  0  0  0  0  0
    1.7233   10.4044    2.9048 O   0  0  0  0  0  0  0  0  0  0  0  0
    1.3171    9.7467    4.0206 C   0  0  0  0  0  0  0  0  0  0  0  0
    0.7022   10.5229    4.8817 N   0  0  0  0  0  0  0  0  0  0  0  0
    1.5598    8.3109    4.0628 C   0  0  0  0  0  0  0  0  0  0  0  0
    1.1490    7.5567    5.1714 C   0  0  0  0  0  0  0  0  0  0  0  0
    1.2871    6.1691    5.1724 C   0  0  0  0  0  0  0  0  0  0  0  0
    1.8386    5.5296    4.0532 C   0  0  0  0  0  0  0  0  0  0  0  0
    2.2787    6.2797    2.9593 C   0  0  0  0  0  0  0  0  0  0  0  0
    2.1356    7.6634    2.9529 C   0  0  0  0  0  0  0  0  0  0  0  0
    1.9617    4.1566    3.9670 O   0  0  0  0  0  0  0  0  0  0  0  0
    0.8632    3.3722    4.4517 C   0  0  0  0  0  0  0  0  0  0  0  0
    0.6290    2.2202    3.4797 C   0  0  0  0  0  0  0  0  0  0  0  0
    0.3183    2.7094    2.0639 C   0  0  0  0  0  0  0  0  0  0  0  0
   -0.8762    3.5005    2.0600 O   0  0  0  0  0  0  0  0  0  0  0  0
   -0.7461    4.8453    1.6996 C   0  0  0  0  0  0  0  0  0  0  0  0
   -0.0952    5.2169    0.4997 C   0  0  0  0  0  0  0  0  0  0  0  0
    0.0280    6.5573    0.1387 C   0  0  0  0  0  0  0  0  0  0  0  0
   -0.5430    7.5217    0.9768 C   0  0  0  0  0  0  0  0  0  0  0  0
   -1.2086    7.1578    2.1885 C   0  0  0  0  0  0  0  0  0  0  0  0
   -1.2984    5.7978    2.5447 C   0  0  0  0  0  0  0  0  0  0  0  0
   -1.6183    8.3811    2.8118 C   0  0  0  0  0  0  0  0  0  0  0  0
   -1.2104    9.4061    1.9810 C   0  0  0  0  0  0  0  0  0  0  0  0
   -0.5757    8.9014    0.8656 N   0  0  0  0  0  0  0  0  0  0  0  0
   -0.0512    9.6857   -0.2650 C   0  0  1  0  0  0  0  0  0  0  0  0
   -0.0848    9.0109   -1.1260 H   0  0  0  0  0  0  0  0  0  0  0  0
   -0.9369   10.8946   -0.5544 C   0  0  0  0  0  0  0  0  0  0  0  0
    1.4708   10.0536   -0.0471 C   0  0  0  0  0  0  0  0  0  0  0  0
    1.7398   11.2815    0.0281 O   0  0  0  0  0  0  0  0  0  0  0  0
    2.2328    9.0517    0.0142 O   0  5  0  0  0  0  0  0  0  0  0  0
    0.2540   14.1880    6.7519 H   0  0  0  0  0  0  0  0  0  0  0  0
    1.8003   13.6289    6.0771 H   0  0  0  0  0  0  0  0  0  0  0  0
    0.7601   12.4951    6.9503 H   0  0  0  0  0  0  0  0  0  0  0  0
    0.0673   13.8158    4.2561 H   0  0  0  0  0  0  0  0  0  0  0  0
   -0.9979   12.7398    5.1573 H   0  0  0  0  0  0  0  0  0  0  0  0
    1.5037   12.3476    2.2240 H   0  0  0  0  0  0  0  0  0  0  0  0
    0.6982    8.0664    6.0179 H   0  0  0  0  0  0  0  0  0  0  0  0
    0.9563    5.5882    6.0288 H   0  0  0  0  0  0  0  0  0  0  0  0
    2.6713    5.7650    2.0883 H   0  0  0  0  0  0  0  0  0  0  0  0
    2.4018    8.2280    2.0606 H   0  0  0  0  0  0  0  0  0  0  0  0
   -0.0362    3.9905    4.5125 H   0  0  0  0  0  0  0  0  0  0  0  0
    1.0946    2.9924    5.4564 H   0  0  0  0  0  0  0  0  0  0  0  0
    1.5181    1.5771    3.4423 H   0  0  0  0  0  0  0  0  0  0  0  0
   -0.2043    1.6124    3.8544 H   0  0  0  0  0  0  0  0  0  0  0  0
    0.1631    1.8513    1.3972 H   0  0  0  0  0  0  0  0  0  0  0  0
    1.1633    3.2903    1.6868 H   0  0  0  0  0  0  0  0  0  0  0  0
    0.3290    4.4468   -0.1390 H   0  0  0  0  0  0  0  0  0  0  0  0
    0.5970    6.8511   -0.7365 H   0  0  0  0  0  0  0  0  0  0  0  0
   -1.7731    5.4844    3.4707 H   0  0  0  0  0  0  0  0  0  0  0  0
   -2.1016    8.5016    3.7725 H   0  0  0  0  0  0  0  0  0  0  0  0
   -1.3066   10.4737    2.1176 H   0  0  0  0  0  0  0  0  0  0  0  0
   -0.5979   11.3664   -1.4802 H   0  0  0  0  0  0  0  0  0  0  0  0
   -0.8409   11.6497    0.2292 H   0  0  0  0  0  0  0  0  0  0  0  0
   -1.9899   10.6040   -0.6609 H   0  0  0  0  0  0  0  0  0  0  0  0
  1  2  1  0  0  0  0
  1 34  1  0  0  0  0
  1 35  1  0  0  0  0
  1 36  1  0  0  0  0
  2  3  1  0  0  0  0
  2 37  1  0  0  0  0
  2 38  1  0  0  0  0
  3  4  2  0  0  0  0
  3  7  1  0  0  0  0
  4  5  1  0  0  0  0
  4 39  1  0  0  0  0
  5  6  1  0  0  0  0
  6  7  2  0  0  0  0
  6  8  1  0  0  0  0
  8  9  2  0  0  0  0
  8 13  1  0  0  0  0
  9 10  1  0  0  0  0
  9 40  1  0  0  0  0
 10 11  2  0  0  0  0
 10 41  1  0  0  0  0
 11 12  1  0  0  0  0
 11 14  1  0  0  0  0
 12 13  2  0  0  0  0
 12 42  1  0  0  0  0
 13 43  1  0  0  0  0
 14 15  1  0  0  0  0
 15 16  1  0  0  0  0
 15 44  1  0  0  0  0
 15 45  1  0  0  0  0
 16 17  1  0  0  0  0
 16 46  1  0  0  0  0
 16 47  1  0  0  0  0
 17 18  1  0  0  0  0
 17 48  1  0  0  0  0
 17 49  1  0  0  0  0
 18 19  1  0  0  0  0
 19 20  1  0  0  0  0
 19 24  2  0  0  0  0
 20 21  2  0  0  0  0
 20 50  1  0  0  0  0
 21 22  1  0  0  0  0
 21 51  1  0  0  0  0
 22 23  2  0  0  0  0
 22 27  1  0  0  0  0
 23 24  1  0  0  0  0
 23 25  1  0  0  0  0
 24 52  1  0  0  0  0
 25 26  2  0  0  0  0
 25 53  1  0  0  0  0
 26 27  1  0  0  0  0
 26 54  1  0  0  0  0
 27 28  1  0  0  0  0
 28 29  1  0  0  0  0
 28 30  1  0  0  0  0
 28 31  1  0  0  0  0
 30 55  1  0  0  0  0
 30 56  1  0  0  0  0
 30 57  1  0  0  0  0
 31 32  2  0  0  0  0
 31 33  1  0  0  0  0
M  CHG  1  33  -1
M  END
$$$$
