57
-1 1 C25H25N2O5
C                     0.439723221691     9.950259879825    12.685024584815
C                    -0.597349480855     8.945482169224    13.213976715250
C                    -0.446083132706     7.588109476195    12.599797398806
C                    -0.144058483572     6.395115957384    13.182575747036
O                    -0.102506023169     5.430813344719    12.196001727190
C                    -0.387284421875     6.106317642830    11.038389187188
N                    -0.596440396741     7.383591893042    11.228768049581
C                    -0.424483478952     5.358875666465     9.789018446003
C                    -0.712275557747     6.026598291983     8.589101855205
C                    -0.756273922844     5.339697876884     7.376223687770
C                    -0.509828115842     3.956266402460     7.348632176335
C                    -0.219684267687     3.280896965161     8.548218714014
C                    -0.177720255584     3.972435475633     9.750799828486
O                    -0.528802442078     3.188902719192     6.225688734207
C                    -0.824359392091     3.820583868073     4.970609800785
C                    -0.800909105087     2.749364217390     3.892397184390
C                    -1.102861288693     3.341288414727     2.519825548184
O                    -1.085977662241     2.279861399998     1.585943110817
C                    -1.370177723173     2.594697318275     0.258204775510
C                    -1.381489462854     1.487124749000    -0.619645447150
C                    -1.652737779261     1.655213407838    -1.975140264887
C                    -1.911681566621     2.947320865689    -2.451249536955
C                    -1.909456381742     4.072162477055    -1.570562389976
C                    -1.629130956346     3.884273785029    -0.198210579276
C                    -2.225311961002     5.213540828628    -2.375417103848
C                    -2.399438288393     4.760350115719    -3.672721399414
N                    -2.200331891476     3.398298437793    -3.729324352910
C                    -2.407562550313     2.501897458212    -4.884429444909
H                    -1.690081381092     1.686398080160    -4.769589613318
C                    -3.833478022242     1.929366880673    -4.848890289740
C                    -2.143414564382     3.113249730076    -6.314886855421
O                    -1.839939683936     2.231044749396    -7.156908960405
O                    -2.323111434434     4.351260253656    -6.470196911226
H                     0.279110625024    10.941579285724    13.122308527111
H                     0.367354417472    10.036215181925    11.597346707947
H                     1.456867131650     9.627078471804    12.930526175628
H                    -1.605667720377     9.318184774386    12.996773177409
H                    -0.518136182174     8.857071093275    14.303109427273
H                     0.054587264583     6.065120249752    14.191009410691
H                    -0.902535334101     7.095105449078     8.616239099756
H                    -0.981058061814     5.884943622349     6.467193386046
H                    -0.031892557968     2.212079048750     8.506906309561
H                     0.046542919006     3.441058401214    10.670445239844
H                    -0.076206005759     4.598842950269     4.768646391983
H                    -1.811588766161     4.298375828419     5.025733566391
H                     0.181662615220     2.267383491331     3.874412213159
H                    -1.541942544343     1.978445526912     4.126078247508
H                    -0.351447382270     4.100982563345     2.253792066810
H                    -2.086950789784     3.835406238163     2.521150692588
H                    -1.175583720875     0.502537699620    -0.209372567098
H                    -1.662398295541     0.796438780056    -2.640003576598
H                    -1.622441304428     4.740051243050     0.469173875545
H                    -2.301116215423     6.244384734397    -2.051221998670
H                    -2.616744089730     5.273597822322    -4.599369936686
H                    -3.947380956165     1.204162280102    -5.659384947863
H                    -4.561145402968     2.734752168782    -4.996675413858
H                    -4.050530421780     1.438660202330    -3.891947092713
