16   
torsion grid (-165,)
C       -0.5085767429   -1.1747917815    0.5265211492
C        0.3175194534   -0.1586596706    1.3181822493
C       -0.0223786160    0.0860251909   -0.1188182561
C       -0.9218738863    1.1875170517   -0.6323100442
O       -1.6389555685    2.4422897291    1.8164452574
O       -2.9313655915    2.8926127055   -0.4437663735
F        1.0511730083   -0.0729291198   -0.9979778278
P       -2.1391823127    1.8569562012    0.5414618310
H       -0.0154933589   -2.0944872105    0.2284253652
H       -1.5685624518   -1.2749367578    0.7452389912
H       -0.1618781316    0.4459562928    2.0807238929
H        1.3509357293   -0.4245163458    1.5160623778
H       -1.4607052707    0.8610482725   -1.5294225806
H       -0.2983040736    2.0434513857   -0.9155037989
H       -3.2743888829    3.6547135608    0.0556171385
H       -3.0843316884    0.8211961860    0.7226306864
16   
torsion grid (-150,)
C       -0.4924566316   -1.2363958406    0.4078494223
C        0.3390093627   -0.3052140982    1.2872373787
C        0.0478594208    0.0425585069   -0.1460133343
C       -0.8071504139    1.1910580757   -0.6419176695
O       -2.5958578461    3.2458678904    0.0336265715
O       -2.5798343586    0.9866557474    1.3900298820
F        1.1486570310   -0.1141340702   -0.9936536860
P       -1.7529839139    2.1467521889    0.5782967627
H       -0.0219238221   -2.1501347237    0.0594292378
H       -1.5584785159   -1.2925051844    0.6019490653
H       -0.1664768181    0.2231343679    2.0880361661
H        1.3614473108   -0.6009854849    1.4990961827
H       -1.5140299595    0.8598191675   -1.4102952543
H       -0.1479034921    1.9312676635   -1.1101370353
H       -3.4478630915    1.3206336841    1.6786032244
H       -0.7925577865    2.5583339094    1.5280388082
16   
torsion grid (-135,)
C       -0.4130619624   -1.2929305362    0.3199927821
C        0.2438828551   -0.3415417434    1.3152819601
C        0.0505630028    0.0576275225   -0.1231483326
C       -0.8781105952    1.1396837509   -0.6460464652
O       -2.5335029126    3.3085109632    0.0358065807
O       -2.5447846458    1.1054226401    1.4774287191
F        1.2372501053    0.0517005019   -0.8623221393
P       -1.7087638810    2.1939987005    0.5777563819
H        0.1662265618   -2.1443063823   -0.0225477786
H       -1.4838005654   -1.4513459879    0.4068079766
H       -0.3790620195    0.0936505242    2.0880026996
H        1.2676587247   -0.5567196867    1.6042224336
H       -1.6522816799    0.7324162973   -1.3043809664
H       -0.2814941875    1.8354841253   -1.2455894794
H       -3.3926135344    1.4841217291    1.7706918415
H       -0.6786487905    2.5909393814    1.4582195085
16   
torsion grid (-120,)
C       -0.3115464877   -1.3454405651    0.2278838796
C        0.1486157612   -0.4012133116    1.3335173930
C        0.0446471444    0.0723799765   -0.0911251361
C       -0.9522115438    1.0854421749   -0.6316389438
O       -2.4634736469    3.3762142516    0.0120551197
O       -2.5179708647    1.2492993658    1.5592182225
F        1.2825063789    0.2301925697   -0.7209200862
P       -1.6684407727    2.2477094989    0.5702280494
H        0.3842234622   -2.1095165156   -0.1036837126
H       -1.3621119357   -1.6193810861    0.1973132926
H       -0.5837849379   -0.0703918220    2.0606923096
H        1.1582142585   -0.5367643337    1.7082559705
H       -1.7879538220    0.6043950127   -1.1492437290
H       -0.4365930233    1.7096867800   -1.3676145581
H       -3.3348988752    1.6861152943    1.8595665491
H       -0.5797646197    2.6279845095    1.3856711017
16   
torsion grid (-105,)
C       -0.2052932732   -1.3809341768    0.1341007272
C        0.0442923365   -0.4823986627    1.3412054389
C        0.0283062282    0.0873569458   -0.0490590257
C       -1.0225030748    1.0318153296   -0.6063874956
O       -2.4147845925    3.4245650456   -0.0365919399
O       -2.4628101281    1.3994394784    1.6405926304
F        1.2897691687    0.4120356626   -0.5548188344
P       -1.6304916795    2.3022309282    0.5493994988
H        0.5989356393   -2.0424655144   -0.1717072735
H       -1.2102788411   -1.7601952847   -0.0266648939
H       -0.7849490797   -0.2621997512    2.0038727128
H        1.0197944387   -0.5525402072    1.8120117497
H       -1.9029301053    0.4902098264   -0.9652002019
H       -0.5963098020    1.5616154890   -1.4629075552
H       -3.2425920385    1.8902037665    1.9562873964
H       -0.4886987211    2.6879729248    1.2860427880
16   
torsion grid (-90,)
C       -0.1019100363   -1.3964440235    0.0482252852
C       -0.0646068882   -0.5794082769    1.3369124386
C       -0.0004494790    0.0981802059    0.0006968531
C       -1.0891142040    0.9790935131   -0.5741811582
O       -2.4028719384    3.4420711464   -0.1048705485
O       -2.3729407271    1.5433851672    1.7174807056
F        1.2580108825    0.5862305573   -0.3585765463
P       -1.6001770494    2.3505309903    0.5136229129
H        0.7936073855   -1.9505986479   -0.2143913983
H       -1.0390387913   -1.8576426107   -0.2494547442
H       -0.9721836747   -0.4732571038    1.9208939165
H        0.8596790533   -0.6022898778    1.9055337708
H       -1.9935136944    0.4017069681   -0.7880347759
H       -0.7421071567    1.4125640372   -1.5165954964
H       -3.1040836059    2.0834122893    2.0670687986
H       -0.4088436006    2.7691774655    1.1458457085
16   
torsion grid (-75,)
C       -0.5782415669   -1.1519897217    0.5739999612
C        0.1312909349   -0.0401653540    1.3453703654
C       -0.0008481549    0.0297995622   -0.1412784713
C       -0.8338657236    1.0638059472   -0.8597664064
O       -0.0809587035    3.1969057628    0.7630420879
O        1.2981159583    2.6629244342   -1.4715756168
F        1.1804055452   -0.2281250613   -0.8641557074
P       -0.1092812087    2.7382957243   -0.6523958981
H       -0.0473368923   -2.0920305883    0.4621458477
H       -1.6592732862   -1.2348339026    0.6393165609
H       -0.4453529247    0.6647711146    1.9341186348
H        1.1200785379   -0.2646448174    1.7321242734
H       -1.8380177899    1.0906299389   -0.4263937529
H       -0.9189589256    0.8111950082   -1.9218657511
H        1.8459972272    1.8970694361   -1.2172130232
H       -0.7998420812    3.5735033917   -1.5518865013
16   
torsion grid (-60,)
C       -0.5427445867   -1.2034086598    0.5057171188
C       -0.0002835367   -0.1087203763    1.4253101904
C        0.0073762086    0.0698700570   -0.0562392193
C       -0.8307269552    1.1026697184   -0.7655234259
O        0.2143603828    3.2540329926    0.6679100151
O        1.2342602258    2.6316542720   -1.7279806005
F        1.2764326593   -0.0389773796   -0.6602131531
P       -0.0335204807    2.7580956019   -0.7130066762
H        0.0691372263   -2.0913672603    0.3824810303
H       -1.6149331032   -1.3682687277    0.4494206396
H       -0.6878825638    0.4978681538    2.0050630335
H        0.9606593676   -0.2907313768    1.8947444678
H       -1.8003475514    1.1881699286   -0.2661664311
H       -1.0015694941    0.8155149363   -1.8094332486
H        1.8499562202    1.9257067672   -1.4553914852
H       -0.8362630731    3.5750022275   -1.5331056531
16   
torsion grid (-45,)
C       -0.4918820938   -1.2317042137    0.4326296762
C       -0.1036949448   -0.1941345164    1.4870593178
C        0.0172156514    0.1165399249    0.0319636420
C       -0.8323676663    1.1546962727   -0.6598656658
O        0.4138381272    3.3594373920    0.5251583765
O        1.1743665697    2.5573811527   -1.9114997182
F        1.3421932927    0.1381930153   -0.4466469042
P        0.0182936824    2.7798734675   -0.7864928459
H        0.1847394727   -2.0685975310    0.2915861051
H       -1.5424704148   -1.4520771038    0.2658751482
H       -0.8812092880    0.3079000862    2.0538414405
H        0.8239875455   -0.3599227893    2.0244475236
H       -1.7575511896    1.3062671800   -0.0965693688
H       -1.0962431130    0.8332576603   -1.6748113073
H        1.8428233133    1.9134227481   -1.6120329435
H       -0.8481279983    3.5565781293   -1.5810558733
16   
torsion grid (-30,)
C       -0.4334098361   -1.2362186698    0.3521132165
C       -0.1892099131   -0.2883657910    1.5270439871
C        0.0259952772    0.1680777278    0.1208634920
C       -0.8353375019    1.2209079270   -0.5438233935
O        0.5483923131    3.4907952646    0.3556814423
O        1.1277160982    2.4395354091   -2.0352231548
F        1.3830180085    0.2961881687   -0.2335924108
P        0.0543784425    2.7980050282   -0.8636886019
H        0.2980002529   -2.0219559884    0.1913200629
H       -1.4542208890   -1.4898992796    0.0804054442
H       -1.0396843183    0.1108414328    2.0709804834
H        0.7012574747   -0.4601059118    2.1225619616
H       -1.6984951784    1.4527155014    0.0864118889
H       -1.2064362838    0.8683259794   -1.5140482105
H        1.8307620672    1.8528563878   -1.7000323416
H       -0.8488150676    3.5154076885   -1.6733872632
16   
torsion grid (-15,)
C       -0.3650310540   -1.2176358693    0.2653337562
C       -0.2533756988   -0.3830874274    1.5414599027
C        0.0338724945    0.2226574688    0.2056244141
C       -0.8424524902    1.2942186885   -0.4204734333
O        0.6188816425    3.6197196844    0.1703227198
O        1.0901520145    2.2953479032   -2.1057653808
F        1.4047113565    0.4380729301   -0.0343639024
P        0.0686285367    2.8034612709   -0.9431996607
H        0.4150408780   -1.9504865079    0.0847051671
H       -1.3507179564   -1.4878349292   -0.1029424551
H       -1.1613103802   -0.0821913040    2.0554244050
H        0.6009460864   -0.5744751310    2.1824896559
H       -1.6139658353    1.6193366465    0.2833942711
H       -1.3405527844    0.9122066159   -1.3192676269
H        1.8138328439    1.7634618175   -1.7259335007
H       -0.8547487076    3.4443390179   -1.7932217294
16   
torsion grid (0,)
C       -0.2928108997   -1.1757680156    0.1758191012
C       -0.3130974917   -0.4699672760    1.5317697712
C        0.0373642797    0.2796051816    0.2876196007
C       -0.8480233299    1.3709374097   -0.2957096565
O        0.6659890172    3.7189284724   -0.0209238390
O        1.0543224449    2.1298703376   -2.1390225688
F        1.4098103296    0.5673415831    0.1619434657
P        0.0731735417    2.7900190684   -1.0179313651
H        0.5334329152   -1.8534353249   -0.0145690282
H       -1.2359355748   -1.4510289180   -0.2875038793
H       -1.2699863357   -0.2595291804    2.0003686555
H        0.5009638122   -0.6893287722    2.2150322154
H       -1.5022948427    1.7956985830    0.4717922013
H       -1.4775504720    0.9667338763   -1.0956261602
H        1.7900006240    1.6487362193   -1.7166918714
H       -0.8614470720    3.3482976307   -1.9127800398
16   
torsion grid (15,)
C       -0.2249796930   -1.1126017998    0.0854702426
C       -0.3642018788   -0.5483348541    1.4996625760
C        0.0387541111    0.3347344573    0.3641843537
C       -0.8474397156    1.4483836225   -0.1686885199
O        0.6750314478    3.8006485735   -0.2256192183
O        1.0262810434    1.9548470318   -2.1314383220
F        1.4030306157    0.6773830271    0.3485342418
P        0.0633474336    2.7579172342   -1.0898469062
H        0.6388061017   -1.7399740455   -0.1103408341
H       -1.1227051352   -1.3737071153   -0.4672167238
H       -1.3580135425   -0.4166402922    1.9177699216
H        0.4099446410   -0.8088981789    2.2142563817
H       -1.3607235770    1.9674962531    0.6473278138
H       -1.6049649419    1.0348103367   -0.8415396078
H        1.7693385662    1.5317639758   -1.6621884292
H       -0.8775945305    3.2092826485   -2.0367403670
16   
torsion grid (30,)
C       -0.5033159989   -1.1616513714    0.7453100355
C        0.3766290453   -0.0118410535    1.2380186093
C       -0.1607493587   -0.0201846908   -0.1579655115
C       -1.1925691051    0.9730263964   -0.6457181808
O       -2.1709988601   -0.4014398900   -2.9429118838
O       -2.4198720630    2.2065703613   -2.6329248622
F        0.7667920647   -0.3323124973   -1.1575043677
P       -1.5285237973    0.8423762728   -2.4370244952
H       -0.0109047124   -2.1063493956    0.5395818927
H       -1.5221771651   -1.2406176088    1.1120298679
H       -0.0376965262    0.7053823004    1.9411301920
H        1.4366847427   -0.2151165060    1.3530230469
H       -0.8629607992    2.0048526671   -0.4717986332
H       -2.1456545688    0.8368091018   -0.1281097658
H       -3.0767067761    2.0868946065   -3.3409422215
H       -0.3114835322    1.1824097870   -3.0588455125
16   
torsion grid (45,)
C       -0.5087281483   -1.1643368583    0.6188780765
C        0.3022215175   -0.0545887161    1.2899566630
C       -0.1004113508    0.0524900530   -0.1471969647
C       -1.0947369151    1.0708410346   -0.6463109327
O       -2.2729967417   -0.4766846223   -2.7192688982
O       -2.4370102696    2.1589843521   -2.6518597175
F        0.9187253874   -0.1562303965   -1.0817110322
P       -1.5684446032    0.7925972512   -2.3877604661
H        0.0160092247   -2.0835650461    0.3808066929
H       -1.5573517995   -1.2836459508    0.8726596505
H       -0.1855985343    0.5960865081    2.0103096040
H        1.3500862882   -0.2589397939    1.4859700716
H       -0.6844704796    2.0862909600   -0.5811403291
H       -2.0115299578    1.0409145826   -0.0515131402
H       -3.1368123499    2.0009786476   -3.3094325750
H       -0.3924586784    1.0276164746   -3.1270384926
16   
torsion grid (60,)
C       -0.4824036807   -1.1631388068    0.4867407395
C        0.2236485534   -0.0941495609    1.3219626450
C       -0.0438538914    0.1234550396   -0.1347197987
C       -1.0176538827    1.1524637519   -0.6476023491
O       -2.4370870625   -0.5021789228   -2.4545500588
O       -2.4132014007    2.1311508496   -2.6832408858
F        1.0666983481    0.0310099549   -0.9790738167
P       -1.6268682106    0.7404477871   -2.3171724354
H        0.0935967594   -2.0449583200    0.2264894511
H       -1.5465747582   -1.3298859533    0.6183708719
H       -0.3510865528    0.4801589680    2.0429973458
H        1.2546037441   -0.2877868922    1.6008109332
H       -0.5525374224    2.1446410544   -0.6807472460
H       -1.8936489747    1.2096150157    0.0045867218
H       -3.1469953301    1.9641981625   -3.3003705708
H       -0.4901436484    0.7937663521   -3.1491333367
16   
torsion grid (75,)
C       -0.4247906180   -1.1625432017    0.3540950102
C        0.1427892548   -0.1350331699    1.3328388289
C        0.0077588102    0.1879505091   -0.1233873331
C       -0.9599835655    1.2185403276   -0.6498942223
O       -2.6594120557   -0.4459183566   -2.1683336873
O       -2.3369074461    2.1119358039   -2.7512135361
F        1.2011289693    0.2196405398   -0.8497950300
P       -1.7021249392    0.6950727145   -2.2299392226
H        0.2172984589   -1.9962544711    0.0893072723
H       -1.4878158692   -1.3803173900    0.3592087365
H       -0.5274412954    0.3525993198    2.0348726303
H        1.1504682451   -0.3071084066    1.6976261024
H       -0.4596237673    2.1843062584   -0.7752123264
H       -1.7922263836    1.3529510438    0.0475880441
H       -3.1198072590    1.9606457074   -3.3093371751
H       -0.6128179496    0.4923412516   -3.1030758817
16   
torsion grid (90,)
C       -0.3651279727   -1.1629766252    0.2420026220
C        0.0479546876   -0.1767303609    1.3320287885
C        0.0556653002    0.2322900819   -0.1091343566
C       -0.8855729091    1.2737909047   -0.6744355995
O       -2.7911684832   -0.3869391555   -1.9264962902
O       -2.3274541536    2.0706173834   -2.7768504473
F        1.3223438189    0.3541867318   -0.6858400233
P       -1.7615662278    0.6678764321   -2.1510384088
H        0.3405505826   -1.9515721043    0.0010141237
H       -1.4124747008   -1.4205835124    0.1228023728
H       -0.7179237047    0.2376665093    1.9812376606
H        1.0171651325   -0.3300588844    1.7959560340
H       -0.3304688335    2.1857407535   -0.9132314488
H       -1.6626611985    1.5320342169    0.0514568527
H       -3.1494204222    1.9253934536   -3.2776174438
H       -0.7433483263    0.2980726554   -3.0565062257
16   
torsion grid (105,)
C       -0.2904386991   -1.1676605687    0.1456369740
C       -0.0624014972   -0.2176268694    1.3176057828
C        0.0989750797    0.2639687582   -0.0911654503
C       -0.8054445652    1.3121088106   -0.7155813617
O       -2.8973593625   -0.3025709328   -1.7071750571
O       -2.3259120203    2.0330297847   -2.7932935381
F        1.4226126810    0.4576998638   -0.4949041130
P       -1.8144149212    0.6533055985   -2.0780952403
H        0.4809470703   -1.9076369387   -0.0429357673
H       -1.3047241976   -1.4696837762   -0.0941651376
H       -0.9254198722    0.1265747074    1.8801593858
H        0.8492634853   -0.3464656412    1.8923509573
H       -0.1944547356    2.1405029506   -1.0846712300
H       -1.5086451305    1.7201942066    0.0170245595
H       -3.2060681995    1.9146006145   -3.1918721473
H       -0.8800225259    0.1384679118   -3.0035704066
16   
torsion grid (120,)
C       -0.2005082615   -1.1673342330    0.0621459759
C       -0.1790152296   -0.2573217003    1.2861293966
C        0.1339183077    0.2944023444   -0.0686329247
C       -0.7278408393    1.3382632511   -0.7623135260
O       -2.9771538375   -0.2153335142   -1.4939025070
O       -2.3438785826    1.9973873613   -2.7810039945
F        1.4887629075    0.5543213797   -0.2936126941
P       -1.8668285356    0.6441474218   -1.9965011220
H        0.6326805565   -1.8528353797   -0.0560568762
H       -1.1620335461   -1.5211594719   -0.2947396341
H       -1.1293712244    0.0145793066    1.7362840285
H        0.6547988110   -0.3602922436    1.9732332393
H       -0.0715704912    2.0469795641   -1.2758647678
H       -1.3314130091    1.9087955352   -0.0496069690
H       -3.2614538138    1.9132634813   -3.0948896507
H       -1.0226006224    0.0109453772   -2.9353197640
16   
torsion grid (135,)
C       -0.1078321277   -1.1609356710   -0.0015715679
C       -0.2972977820   -0.2910756414    1.2370576197
C        0.1607068773    0.3203201432   -0.0477134155
C       -0.6462134835    1.3509864826   -0.8182331678
O       -3.0142505238   -0.1344039791   -1.2850239125
O       -2.3801679696    1.9715105209   -2.7419846989
F        1.5199665643    0.6429740899   -0.0925589294
P       -1.9084034529    0.6426353628   -1.9148515299
H        0.7720527351   -1.7955751337   -0.0318856946
H       -0.9971439891   -1.5628649543   -0.4750770296
H       -1.3149107043   -0.0861608396    1.5565104895
H        0.4406295066   -0.3723272286    2.0287034079
H        0.0380525682    1.9186440178   -1.4574266921
H       -1.1402803037    2.0647998654   -0.1516145134
H       -3.3238922053    1.9196951855   -2.9749524160
H       -1.1645231199   -0.0794137405   -2.8740297393
16   
torsion grid (150,)
C       -0.0140707191   -1.1519233030   -0.0424853948
C       -0.4087993721   -0.3215517200    1.1759768718
C        0.1769807612    0.3405519689   -0.0288309762
C       -0.5664123294    1.3465994824   -0.8834106953
O       -3.0248660388   -0.0458266581   -1.0866712646
O       -2.4175182619    1.9593877758   -2.6934984420
F        1.5120493789    0.7317471491    0.1036758571
P       -1.9425066934    0.6489654274   -1.8403897616
H        0.8962947445   -1.7386749380    0.0265162185
H       -0.8121201853   -1.5959745248   -0.6279002502
H       -1.4698040935   -0.1812535875    1.3592321905
H        0.2251724200   -0.3819057632    2.0547091954
H        0.1318617430    1.7734595869   -1.6122937272
H       -0.9579943697    2.1712295063   -0.2787981167
H       -3.3782159056    1.9436979042   -2.8498405335
H       -1.3135584890   -0.1497198264   -2.8206429611
16   
torsion grid (165,)
C       -0.5642182314   -1.0435885083    0.7415662397
C        0.5170497535   -0.0827421936    1.2345314306
C       -0.0532074191    0.0589689710   -0.1401261379
C       -0.8460650928    1.2547621359   -0.6167453124
O       -2.0477011746    1.8815390455    1.8766126937
O       -2.8244825567    3.0043502512   -0.3867771849
F        0.7839866772   -0.3761746190   -1.1713071312
P       -2.2757823545    1.6913997933    0.4162030020
H       -0.2563981632   -2.0476893989    0.4680520287
H       -1.5518901058   -0.9697011110    1.1860949022
H        0.2310475076    0.6527963316    1.9796667844
H        1.5309683868   -0.4644628465    1.2973499955
H       -1.2318280951    1.0551399559   -1.6235124557
H       -0.2036449483    2.1399832502   -0.6777206437
H       -3.2675915219    3.6251737454    0.2182144443
H       -3.2466110466    0.7116908872    0.1114074028
16   
torsion grid (180,)
C       -0.5352321974   -1.1101469254    0.6446192253
C        0.4229458515   -0.1014069794    1.2810779173
C       -0.0361190931    0.0703576489   -0.1320734635
C       -0.8900377755    1.2105369073   -0.6353842482
O       -1.8627449252    2.1069243929    1.8807093669
O       -2.8430232827    2.9799169807   -0.4142652346
F        0.9310414675   -0.2290849902   -1.0954850660
P       -2.2199287866    1.7600741583    0.4763389972
H       -0.1311505739   -2.0770934932    0.3626898384
H       -1.5680380364   -1.1278000228    0.9816459028
H        0.0346506012    0.5758742707    2.0344920975
H        1.4531059289   -0.4186406734    1.4069075736
H       -1.3538053773    0.9374358426   -1.5908577574
H       -0.2574323823    2.0874667463   -0.8140407507
H       -3.2356864067    3.6647707107    0.1554727371
H       -3.2149133968    0.7622611159    0.3716629222
