10   
torsion grid (-165,)
C        2.2050250224   -1.2877296537   -0.1543970802
C        3.5539001193   -0.6117520408    0.0293750786
O        1.1604102633   -0.3339889179   -0.3204882464
O        3.4502342114    0.1885641930    1.2190648928
H        2.2191375895   -1.9057040115   -1.0566700468
H        2.0068700789   -1.9410547125    0.7083962414
H        3.7710543420    0.0185302167   -0.8435119911
H        4.3460122298   -1.3675027925    0.1323670192
H        1.2513608466    0.2940933898    0.4160266690
H        4.1911001270    0.8119489569    1.2439114100
10   
torsion grid (-150,)
C        2.2055798422   -1.2808685457   -0.1600856769
C        3.5663661620   -0.6336721081    0.0446461447
O        1.1811663061   -0.3028171928   -0.3057923920
O        3.4797666189    0.1518786054    1.2475200851
H        2.2111486667   -1.8784853469   -1.0761774855
H        1.9910878016   -1.9509226124    0.6859667725
H        3.7996064816    0.0037718997   -0.8177849501
H        4.3463499825   -1.4019242173    0.1417745875
H        1.2761762702    0.2943844692    0.4557021069
H        4.0817974821    0.9062417588    1.1745521895
10   
torsion grid (-135,)
C        2.2092924358   -1.2740802609   -0.1650559474
C        3.5824855366   -0.6558956949    0.0540192305
O        1.2035934703   -0.2738273099   -0.2908374061
O        3.5243468149    0.1229458013    1.2648491494
H        2.2033374087   -1.8534380722   -1.0930077600
H        1.9804675085   -1.9568942998    0.6668337033
H        3.8371046277   -0.0201847904   -0.8026029237
H        4.3456965155   -1.4394304326    0.1517457165
H        1.2902944684    0.2855228740    0.4997700999
H        3.9536674679    0.9758293732    1.1110460689
10   
torsion grid (-120,)
C        2.2158602079   -1.2626408929   -0.1682214471
C        3.6029372555   -0.6757005877    0.0557920649
O        1.2279987673   -0.2408153278   -0.2751523598
O        3.5876335937    0.1026512054    1.2684974564
H        2.1937472306   -1.8262492894   -1.1057960352
H        1.9747657878   -1.9536614281    0.6529603230
H        3.8828393671   -0.0521709287   -0.8013381252
H        4.3440732629   -1.4778576597    0.1602943624
H        1.2858964200    0.2698087200    0.5498057990
H        3.8212307883    1.0163613202    1.0556932646
10   
torsion grid (-105,)
C        2.2244709398   -1.2456894279   -0.1703906505
C        3.6249295277   -0.6886135657    0.0548509050
O        1.2534859313   -0.2040639211   -0.2664181378
O        3.6538784604    0.0969681585    1.2606223150
H        2.1876624459   -1.7981213194   -1.1143186137
H        1.9702640824   -1.9398209549    0.6435515735
H        3.9315996157   -0.0855333323   -0.8080196439
H        4.3416587466   -1.5091650647    0.1743802237
H        1.2576155439    0.2487826922    0.5927356913
H        3.6778058380    1.0324380807    1.0160325396
10   
torsion grid (-90,)
C        2.2364927580   -1.2242651246   -0.1685202127
C        3.6511852717   -0.6987568779    0.0495933765
O        1.2859107215   -0.1598628106   -0.2622355574
O        3.7249637890    0.1001188308    1.2405444290
H        2.1828974940   -1.7736343275   -1.1135983028
H        1.9680306789   -1.9128099701    0.6446509222
H        3.9774514248   -0.1212962833   -0.8245438176
H        4.3436677598   -1.5363773768    0.1850705442
H        1.2000454497    0.2173253299    0.6274991830
H        3.5366212095    1.0175552040    0.9947109637
10   
torsion grid (-75,)
C        2.3089650829   -1.1882631288   -0.0186898431
C        3.6988424087   -0.5794228711   -0.0798886313
O        1.3755513480   -0.0999272018    0.0522229509
O        4.0479901578    0.0743274697    1.1389267718
H        2.1299157601   -1.8012671865   -0.9153517320
H        2.2353045597   -1.8280948267    0.8708632375
H        3.7621457812    0.1068423080   -0.9358128969
H        4.4359734566   -1.3747172092   -0.2265365641
H        0.5038971164   -0.4502823882    0.2882055699
H        3.5564834491    0.9098335311    1.1656776819
10   
torsion grid (-60,)
C        2.3222423871   -1.1801113116   -0.0189823020
C        3.7180229961   -0.5848740047   -0.0928721755
O        1.4098262788   -0.0747176773    0.0822980154
O        4.0527622755    0.1225750142    1.0978179911
H        2.1181736452   -1.7766430026   -0.9205765312
H        2.2481330433   -1.8287253250    0.8641991897
H        3.7893261461    0.0675431223   -0.9754249442
H        4.4553229697   -1.3857656249   -0.1987023541
H        0.5358582533   -0.4108127877    0.3301262503
H        3.3945304229    0.8309831029    1.1897905293
10   
torsion grid (-45,)
C        2.3350636594   -1.1691106453   -0.0202384249
C        3.7379167731   -0.5903855113   -0.1092896878
O        1.4412708926   -0.0507109871    0.1085193271
O        4.0601947829    0.1812995130    1.0434940535
H        2.1090013648   -1.7522979091   -0.9244678948
H        2.2599566316   -1.8254459513    0.8575291211
H        3.8178869492    0.0199717299   -1.0213776823
H        4.4709886457   -1.3997897364   -0.1719796578
H        0.5649089692   -0.3764200370    0.3618319773
H        3.2822841072    0.7378599289    1.2192745215
10   
torsion grid (-30,)
C        2.3413231222   -1.1599267915   -0.0248442402
C        3.7468816557   -0.5875205219   -0.1276538209
O        1.4499513931   -0.0423502685    0.1210376661
O        4.0594770448    0.2534599843    0.9788283363
H        2.1069938584   -1.7391316381   -0.9289426654
H        2.2690663390   -1.8214331659    0.8500935152
H        3.8333573151   -0.0220371677   -1.0674662339
H        4.4768749252   -1.4029337714   -0.1490643419
H        0.5698700719   -0.3727014645    0.3551659640
H        3.2182115421    0.6461760714    1.2680937710
10   
torsion grid (-15,)
C        2.3431197945   -1.1457697090   -0.0200869013
C        3.7486911988   -0.5761405225   -0.1406191696
O        1.4439861321   -0.0365706966    0.1246978882
O        4.0641632512    0.3254813219    0.9179490724
H        2.1094035926   -1.7364626903   -0.9168895179
H        2.2780492899   -1.8033563515    0.8595754911
H        3.8385226171   -0.0488561017   -1.1008656692
H        4.4734585293   -1.3983682789   -0.1317621537
H        0.5592540638   -0.3784673817    0.3225701861
H        3.2276078229    0.5600742158    1.3517166383
10   
torsion grid (0,)
C        2.3366369820   -1.1299815706   -0.0089517919
C        3.7392584668   -0.5614164138   -0.1528092146
O        1.4202766713   -0.0334913834    0.0899067506
O        4.0775395850    0.3717164057    0.8723354554
H        2.1166268916   -1.7627535291   -0.8808574079
H        2.2781563924   -1.7577783113    0.8943384013
H        3.8214146085   -0.0489782805   -1.1198937001
H        4.4569282246   -1.3922768692   -0.1430548469
H        0.5305873360   -0.3886761825    0.2360322958
H        3.3178690647    0.4533911030    1.4689990714
10   
torsion grid (15,)
C        2.2970567636   -1.2639640195   -0.0406910783
C        3.6146675179   -0.5211521283   -0.1838702260
O        1.1538074585   -0.4135684278   -0.1615822725
O        3.8743708794    0.3749122621    0.9107929245
H        2.2073584240   -2.0128603674   -0.8329963505
H        2.2807452697   -1.7978247298    0.9248925141
H        3.6134696972    0.0773253547   -1.1006599029
H        4.4318035813   -1.2530046858   -0.2469296164
H        1.3564502302    0.4328348781    0.2684186341
H        3.2774093320    0.1627302185    1.6449218567
10   
torsion grid (30,)
C        2.2994021166   -1.2659763857   -0.0433943959
C        3.6159726896   -0.5178351208   -0.1743898233
O        1.1640053618   -0.4080565119   -0.1589064776
O        3.8117998771    0.4268696862    0.8911032288
H        2.2132716830   -2.0109081549   -0.8402853845
H        2.2793277774   -1.8062339080    0.9192893866
H        3.6386045425    0.0575969702   -1.1041472172
H        4.4440398883   -1.2412714792   -0.1900563315
H        1.3863828653    0.4334198543    0.2726903808
H        3.3623348927    0.0956206701    1.6851806640
10   
torsion grid (45,)
C        2.2908907289   -1.2671894504   -0.0525809086
C        3.6070205507   -0.5125076734   -0.1656310571
O        1.1631312314   -0.4045364333   -0.1778467922
O        3.7408284541    0.4745016646    0.8697383950
H        2.2143112900   -2.0104067125   -0.8523607933
H        2.2601814158   -1.8097612053    0.9088992324
H        3.6521346759    0.0399155499   -1.1075514946
H        4.4466706900   -1.2223395872   -0.1339154504
H        1.3840811295    0.4207593869    0.2861152296
H        3.4726451134    0.0693623044    1.7109199657
10   
torsion grid (60,)
C        2.2778314501   -1.2708198509   -0.0655013680
C        3.5945694190   -0.5104979034   -0.1522814576
O        1.1582737069   -0.4024016175   -0.2040169791
O        3.6718157853    0.5071829333    0.8591393095
H        2.2141270575   -2.0080812581   -0.8721678167
H        2.2303945671   -1.8188731212    0.8919503142
H        3.6621435414    0.0229395991   -1.1034854712
H        4.4433118297   -1.2056222575   -0.0781050148
H        1.3688368788    0.4021030141    0.3006654342
H        3.6055141196    0.0751931976    1.7265913486
10   
torsion grid (75,)
C        2.2637669889   -1.2747291240   -0.0782620341
C        3.5820421818   -0.5116031276   -0.1334567359
O        1.1525888883   -0.3994673775   -0.2304806422
O        3.6110328751    0.5240501695    0.8639182846
H        2.2140102282   -2.0023051050   -0.8948441028
H        2.1960942361   -1.8311918141    0.8724580915
H        3.6726245952    0.0075527919   -1.0909260994
H        4.4349601889   -1.1955967554   -0.0238091445
H        1.3442762149    0.3802945337    0.3191177163
H        3.7536420290    0.1090002333    1.7294197105
10   
torsion grid (90,)
C        2.2501082238   -1.2776947586   -0.0920860503
C        3.5690831434   -0.5131680823   -0.1131224059
O        1.1452112666   -0.3972813959   -0.2580614173
O        3.5548916834    0.5267728008    0.8828796648
H        2.2153697037   -1.9941664979   -0.9192647343
H        2.1620178712   -1.8429781760    0.8508059374
H        3.6848119827   -0.0027549858   -1.0733064606
H        4.4206585418   -1.1920106977    0.0261076818
H        1.3091377221    0.3551700479    0.3367435225
H        3.9006174009    0.1660334002    1.7130206661
10   
torsion grid (105,)
C        2.2387176764   -1.2804154431   -0.1062547062
C        3.5584531409   -0.5181275468   -0.0921208583
O        1.1386873362   -0.3954134397   -0.2835067137
O        3.5068121163    0.5099709129    0.9173412965
H        2.2182788843   -1.9845668712   -0.9443789862
H        2.1316556933   -1.8554212692    0.8277576041
H        3.7012045330   -0.0083998306   -1.0501336281
H        4.4023686420   -1.2006053384    0.0690926895
H        1.2707539391    0.3291134028    0.3521396804
H        4.0372320380    0.2342537364    1.6780577174
10   
torsion grid (120,)
C        2.2304329759   -1.2827343952   -0.1206089113
C        3.5511335770   -0.5259323205   -0.0742970302
O        1.1332433325   -0.3943051309   -0.3043951734
O        3.4698960671    0.4756565527    0.9601885102
H        2.2222167762   -1.9740961929   -0.9693524892
H        2.1085099262   -1.8679913648    0.8042254095
H        3.7204351197   -0.0097154845   -1.0258980440
H        4.3824246123   -1.2203473727    0.1002819942
H        1.2374498659    0.3072629226    0.3609885057
H        4.1564166738    0.3126605580    1.6208611554
10   
torsion grid (135,)
C        2.2226277208   -1.2829972407   -0.1305532981
C        3.5449677645   -0.5342391058   -0.0519586604
O        1.1287041626   -0.3904592474   -0.3188608157
O        3.4401761210    0.4301501414    1.0138518857
H        2.2258815679   -1.9607173236   -0.9899519511
H        2.0869004121   -1.8802864645    0.7838646646
H        3.7369889910   -0.0034586384   -0.9925673592
H        4.3634154396   -1.2435248231    0.1266555839
H        1.2090997134    0.2909517002    0.3698508081
H        4.2419902278    0.4044318382    1.5531511899
10   
torsion grid (150,)
C        2.2160800105   -1.2840172541   -0.1377254104
C        3.5414178716   -0.5466049156   -0.0291353414
O        1.1278612995   -0.3842620459   -0.3282198152
O        3.4234380843    0.3716780863    1.0727089986
H        2.2290404104   -1.9479065545   -1.0073934084
H        2.0662218843   -1.8942952610    0.7653315051
H        3.7468257968    0.0070865159   -0.9548933096
H        4.3501709909   -1.2705693842    0.1396516414
H        1.1958179780    0.2840308605    0.3741968589
H        4.2925115155    0.5020813172    1.4769845671
10   
torsion grid (165,)
C        2.2084750990   -1.2833653430   -0.1435071494
C        3.5384953462   -0.5611803264   -0.0059287451
O        1.1304399310   -0.3722009342   -0.3386337384
O        3.4190835718    0.3055999847    1.1344160836
H        2.2296719288   -1.9368634519   -1.0204949642
H        2.0412164911   -1.9037121622    0.7494111949
H        3.7461209849    0.0253371634   -0.9115316284
H        4.3426853689   -1.2971578151    0.1361395323
H        1.1927330071    0.2858035449    0.3738056990
H        4.3008231892    0.6033002638    1.4014109432
10   
torsion grid (180,)
C        2.2052250703   -1.2853921800   -0.1497583948
C        3.5433132881   -0.5840496598    0.0133621061
O        1.1420042792   -0.3552856498   -0.3342040835
O        3.4272155178    0.2440199827    1.1817661879
H        2.2260412101   -1.9221703896   -1.0387576738
H        2.0224871361   -1.9219406000    0.7287000945
H        3.7550297691    0.0278597094   -0.8743721744
H        4.3423718859   -1.3299789926    0.1343214586
H        1.2164592439    0.2910913045    0.3878465851
H        4.2642028546    0.7111785820    1.3216634273
