8    
torsion grid (-165,)
C        0.2827427868   -1.3942475113    0.1658425754
O        1.6304408595    2.2021403805    0.8533064489
O        1.1555096658    1.0527021380    0.1158315330
S        0.2837559779    0.0485195015    1.2574985429
H       -0.2355759820   -2.1845819250    0.7177480310
H        1.3049271063   -1.7144953398   -0.0486941006
H       -0.2602827498   -1.1911936888   -0.7601709143
H        0.9603896554    2.8688027114    0.6064079666
8    
torsion grid (-150,)
C        0.2925570996   -1.4036509403    0.1688087108
O        1.6822754033    2.1427421200    0.8204425287
O        0.9838789309    1.1153760859    0.0681492528
S        0.1880143153    0.0711142559    1.2138557348
H       -0.1899416004   -2.2045431742    0.7383418539
H        1.3346553392   -1.6701208192   -0.0214450354
H       -0.2474409209   -1.2617032554   -0.7699238767
H        1.0779087528    2.8984319940    0.6895409139
8    
torsion grid (-135,)
C        0.3060305251   -1.4040897003    0.1727888555
O        1.7253365753    2.0754179734    0.7574381282
O        0.8112842176    1.1836239880    0.0439064404
S        0.0984673642    0.0928735418    1.1741218383
H       -0.1486559604   -2.2128784398    0.7546887844
H        1.3634609400   -1.6240032066    0.0099115163
H       -0.2212792880   -1.3130623274   -0.7788751462
H        1.1872629460    2.8897644376    0.7737896659
8    
torsion grid (-120,)
C        0.3240148347   -1.3930935057    0.1794821664
O        1.7499704688    1.9985653016    0.6621822972
O        0.6361463921    1.2486349598    0.0471060539
S        0.0147206196    0.1101824246    1.1497620928
H       -0.1156102877   -2.2131721507    0.7574955629
H        1.3940894340   -1.5720400615    0.0529543371
H       -0.1756838769   -1.3329871456   -0.7890322381
H        1.2942597351    2.8415564441    0.8478198106
8    
torsion grid (-105,)
C        0.3426278519   -1.3660767893    0.1888678469
O        1.7496565425    1.9063651478    0.5440609956
O        0.4753425958    1.3065635751    0.0639676843
S       -0.0813033950    0.1293543606    1.1308338229
H       -0.0730891328   -2.2054003481    0.7568038209
H        1.4248071304   -1.4879309153    0.1046685395
H       -0.1216640800   -1.3356041876   -0.7984281226
H        1.4055298070    2.7403754234    0.9169954953
8    
torsion grid (-90,)
C        0.3622813204   -1.3223247890    0.2010660871
O        1.7211802390    1.7969277791    0.4237224516
O        0.3335454537    1.3606999314    0.0870229869
S       -0.1923007522    0.1475691176    1.1152321544
H       -0.0188137836   -2.1873885888    0.7542064424
H        1.4528081918   -1.3685684902    0.1655982960
H       -0.0583246792   -1.3226789688   -0.8063101145
H        1.5215313298    2.5834102754    0.9672317790
8    
torsion grid (-75,)
C        0.3803241816   -1.2650885501    0.2140476915
O        1.6756435467    1.6737191262    0.3212409175
O        0.2250805024    1.4164788617    0.1069051908
S       -0.3217112672    0.1663038134    1.0847373525
H        0.0514899179   -2.1525586670    0.7646902370
H        1.4707361238   -1.2143440385    0.2286396576
H        0.0087670924   -1.3130497244   -0.8116586180
H        1.6315772222    2.3761854453    0.9991676540
8    
torsion grid (-60,)
C        0.4044932810   -1.2107348632    0.2279515280
O        1.6052635363    1.5731380122    0.2155288504
O        0.1322566688    1.4771974342    0.1657198325
S       -0.4260794889    0.1627788067    1.0762367097
H        0.0965865562   -2.1200859129    0.7541012598
H        1.4861165560   -1.0934827441    0.3061427452
H        0.0970681533   -1.2712171689   -0.8185145504
H        1.7262020570    2.1700527027    0.9806037077
8    
torsion grid (-45,)
C        0.4296466222   -1.1707106536    0.2433428096
O        1.5203500766    1.5172492954    0.1119169364
O        0.0665575909    1.5403089667    0.2649481577
S       -0.5038307186    0.1404785097    1.0800848369
H        0.0955169016   -2.1020922240    0.7122549890
H        1.4984863565   -1.0408363079    0.4111497806
H        0.2092075569   -1.2019272845   -0.8263487630
H        1.8059729336    2.0051759648    0.9104213356
8    
torsion grid (-30,)
C        0.4544416702   -1.1426333169    0.2657030628
O        1.4283849829    1.4983717907    0.0111617382
O        0.0298150783    1.5947628268    0.3760537762
S       -0.5668098009    0.1144939600    1.0791188488
H        0.0680850881   -2.0919950549    0.6521597893
H        1.5030657487   -1.0393904264    0.5422562141
H        0.3403863052   -1.1215154469   -0.8204901215
H        1.8645382472    1.8755519342    0.8018067750
8    
torsion grid (-15,)
C        0.4731788813   -1.1228280585    0.2822361769
O        1.3426933481    1.5024187603   -0.0654941940
O        0.0251382249    1.6334580520    0.5035616869
S       -0.6197330812    0.0890630407    1.0661867709
H        0.0448442801   -2.0844942974    0.5868367925
H        1.4953576334   -1.0542341672    0.6546537006
H        0.4548382759   -1.0502078100   -0.8067823616
H        1.9055897572    1.7744707468    0.6865715107
8    
torsion grid (0,)
C        0.4879565231   -1.1107795284    0.3022620788
O        1.2609002746    1.5272476379   -0.1316275929
O        0.0437204505    1.6505078752    0.6274254876
S       -0.6632256243    0.0749582741    1.0391025787
H        0.0227124795   -2.0784010034    0.5227498948
H        1.4756586300   -1.0825244908    0.7657834438
H        0.5645766135   -0.9881709638   -0.7787580907
H        1.9296079729    1.6948084658    0.5608322828
8    
torsion grid (15,)
C        0.4994602321   -1.1044146682    0.3218652522
O        1.1808941953    1.5664928682   -0.1833996778
O        0.0820937622    1.6406096840    0.7516654259
S       -0.6924812120    0.0726066651    1.0062432571
H        0.0009088911   -2.0716636217    0.4515948094
H        1.4446021007   -1.1230419583    0.8702405749
H        0.6691701516   -0.9287527379   -0.7403251030
H        1.9372591987    1.6358100356    0.4298855442
8    
torsion grid (30,)
C        0.5064519418   -1.1054069044    0.3414335639
O        1.1052240396    1.6173458621   -0.2209512916
O        0.1377313689    1.6035910791    0.8672739156
S       -0.7089701448    0.0825372605    0.9668417581
H       -0.0190152398   -2.0657475583    0.3823817569
H        1.4014304592   -1.1691708329    0.9670275206
H        0.7669809131   -0.8839318612   -0.6932755659
H        1.9320739816    1.6084292218    0.2970384254
8    
torsion grid (45,)
C        0.5056854127   -1.1210941299    0.3599391748
O        1.0389110563    1.6830546467   -0.2453392846
O        0.2119978842    1.5419699524    0.9665870782
S       -0.7107087399    0.1003905342    0.9219829920
H       -0.0440747779   -2.0673655442    0.3215769963
H        1.3442297957   -1.2264776262    1.0544973125
H        0.8549009173   -0.8699750959   -0.6418250446
H        1.9209657713    1.6471435296    0.1703508582
8    
torsion grid (60,)
C        0.4976586924   -1.1563102647    0.3772887241
O        0.9803995306    1.7750556034   -0.2571978855
O        0.3051530969    1.4662250635    1.0391667239
S       -0.6926129432    0.1207575904    0.8757595774
H       -0.0822967834   -2.0786800036    0.2696540135
H        1.2731377117   -1.3060496231    1.1334012184
H        0.9360183174   -0.8967033664   -0.5876520931
H        1.9044496973    1.7633512671    0.0573498041
8    
torsion grid (75,)
C        0.4874425374   -1.2050964256    0.3877221783
O        0.9289606552    1.9153961217   -0.2377790133
O        0.4042901808    1.3983785058    1.0772079009
S       -0.6563933855    0.1409161069    0.8170286879
H       -0.1296601822   -2.0989552268    0.2489295327
H        1.2054474145   -1.3843673828    1.1916902682
H        0.9993378343   -0.9790771992   -0.5501745761
H        1.8824822653    1.9004517667   -0.0268548958
8    
torsion grid (90,)
C        0.4825877303   -1.2503542933    0.3908918094
O        0.8819866171    2.0961435701   -0.1603190015
O        0.4909109579    1.3503690106    1.0906833961
S       -0.6148678982    0.1590438694    0.7384561277
H       -0.1707396786   -2.1192980237    0.2581713632
H        1.1538925958   -1.4329215126    1.2329272459
H        1.0480063870   -1.0902945981   -0.5304283032
H        1.8501306085    1.9749582442   -0.1126125547
8    
torsion grid (105,)
C        0.2578095348   -1.2138192446    0.1658953554
O        1.0516102538    2.2399831218    0.7676367316
O        1.7432500180    0.9217399669    0.8618291836
S        0.7639956314   -0.2207007821    1.6056561643
H       -0.2727109192   -2.0805886070    0.5748618053
H        1.1342069899   -1.5622837425   -0.3842688961
H       -0.4205363432   -0.6653275357   -0.4929291052
H        0.8642821544    2.2686430899   -0.1909111561
8    
torsion grid (120,)
C        0.2583684078   -1.2475648437    0.1604975454
O        1.2270247337    2.2913658430    0.7976328206
O        1.7380558381    0.9133835538    0.7199737927
S        0.7029845707   -0.1559798508    1.5464943512
H       -0.3160925081   -2.0669628075    0.6060738177
H        1.1558403947   -1.6594865684   -0.3049621163
H       -0.3636706105   -0.7415838558   -0.5823736099
H        0.7193964933    2.3544747960   -0.0355665186
8    
torsion grid (135,)
C        0.2646897152   -1.2852079369    0.1582921087
O        1.3465301528    2.3121461903    0.8130697940
O        1.6866355942    0.9185565049    0.5605772777
S        0.6402633936   -0.0997372081    1.4817147022
H       -0.3437961942   -2.0653632510    0.6280693213
H        1.1811498119   -1.7387814472   -0.2245163870
H       -0.3047571221   -0.8252858810   -0.6530231752
H        0.6511919684    2.4713192956    0.1435864413
8    
torsion grid (150,)
C        0.2704989107   -1.3211788918    0.1586124978
O        1.4320134386    2.3104481043    0.8335668684
O        1.5909956856    0.9340192665    0.4140438787
S        0.5663008421   -0.0537132906    1.4201413941
H       -0.3458768722   -2.0838920414    0.6455620089
H        1.2098534302   -1.7792025826   -0.1588088221
H       -0.2684145475   -0.9143470962   -0.7002817191
H        0.6665364324    2.5955127984    0.2949339762
8    
torsion grid (165,)
C        0.2727807136   -1.3518388886    0.1605961706
O        1.5068582833    2.2891004293    0.8525267613
O        1.4664174325    0.9599530776    0.2911094449
S        0.4767679694   -0.0125236584    1.3613602984
H       -0.3191257481   -2.1192569926    0.6691870220
H        1.2413645786   -1.7765381217   -0.1132447849
H       -0.2632262191   -1.0112215359   -0.7284238991
H        0.7400703096    2.7099719569    0.4146590697
8    
torsion grid (180,)
C        0.2763967670   -1.3765437380    0.1632339707
O        1.5724419069    2.2518025650    0.8613399413
O        1.3189325496    0.9998943823    0.1903618872
S        0.3819418401    0.0213973895    1.3067513532
H       -0.2806981879   -2.1546775949    0.6940218006
H        1.2735426404   -1.7525068945   -0.0776291695
H       -0.2633642511   -1.1053634432   -0.7471979739
H        0.8427140548    2.8036436006    0.5168882732
