11   
torsion grid (-165,)
C       -1.0389159827   -0.3462087276   -1.5022430704
N       -1.8992597812   -1.0374613598   -0.8681310099
N       -1.9863350347    0.8314308272    1.2424696487
O       -3.5694410144   -1.1597795314    1.0453766288
O       -3.7295554874    0.8124019616   -0.5841858161
O       -0.9028340032    0.0847468416    1.7802888377
S       -2.9624243858   -0.1516994483    0.1994877766
H       -0.3894559000   -0.8718331174   -2.2047096420
H       -0.8940730302    0.7373362651   -1.4069497973
H       -1.5709482909    1.5986393689    0.7097698894
H       -1.2206528750   -0.1597860843    2.6677671181
11   
torsion grid (-150,)
C       -1.0063102987   -0.3640745284   -1.4372301008
N       -2.0130182656   -0.9833416414   -0.9663729084
N       -2.0085380931    0.8425160120    1.2031616895
O       -3.5427093435   -1.1945219500    1.0421718513
O       -3.8386362772    0.8021546275   -0.5335167214
O       -0.8738081725    0.1254385320    1.6724407153
S       -3.0054413226   -0.1517490029    0.1900419762
H       -0.4168070978   -0.8725207106   -2.2022548842
H       -0.6699972341    0.6348933385   -1.1346112177
H       -1.6526995366    1.6410936718    0.6736099230
H       -1.1359301438   -0.1421013531    2.5715002408
11   
torsion grid (-135,)
C       -0.9826370728   -0.3845459829   -1.4008598191
N       -2.0983015507   -0.8971232696   -1.0665011754
N       -2.0230648410    0.8615652804    1.1713673428
O       -3.4707406500   -1.2329298095    1.0325106908
O       -3.9361836375    0.7910625322   -0.4681994767
O       -0.8668640441    0.1641115095    1.6186034399
S       -3.0280528818   -0.1457502866    0.1799633516
H       -0.4390397304   -0.8614630785   -2.2184375568
H       -0.5115158527    0.4857205398   -0.9312479281
H       -1.6964014156    1.6732411612    0.6428466702
H       -1.1110941088   -0.1161016004    2.5188950244
11   
torsion grid (-120,)
C       -0.9661641581   -0.4095915552   -1.3836145634
N       -2.1617002750   -0.7877900843   -1.1638164513
N       -2.0370121741    0.8834564829    1.1500382203
O       -3.3753007153   -1.2754449575    1.0033857888
O       -4.0207407156    0.7777223499   -0.3927305143
O       -0.8695725223    0.2054267604    1.5992465305
S       -3.0378840141   -0.1367141321    0.1688208009
H       -0.4590046824   -0.8442625991   -2.2471443468
H       -0.3988896615    0.3024011601   -0.7765749382
H       -1.7262131714    1.7021955147    0.6226933769
H       -1.1114136956   -0.0796119442    2.4986366601
11   
torsion grid (-105,)
C       -0.9540765779   -0.4435952885   -1.3746161640
N       -2.2027546327   -0.6631734266   -1.2497501149
N       -2.0553691047    0.9111408498    1.1413156898
O       -3.2742126174   -1.3129263733    0.9614990257
O       -4.0898178696    0.7575967344   -0.3219018522
O       -0.8735904907    0.2597605888    1.5948102094
S       -3.0394702736   -0.1256362404    0.1577658393
H       -0.4758181592   -0.8211141697   -2.2808100072
H       -0.3229637808    0.0809166823   -0.6522672736
H       -1.7595893589    1.7356767728    0.6140792058
H       -1.1162329201   -0.0408591341    2.4888160053
11   
torsion grid (-90,)
C       -0.9956066064   -0.5077181490   -1.3868934162
N       -2.0520696563    0.2041790271   -1.4473734869
N       -1.8367291007    0.5976772384    1.3882461996
O       -3.8638393805   -0.4332832739    0.2437388398
O       -3.2262399530    2.0267396633   -0.1338622907
O       -1.3049101468   -0.6979674805    1.6481541933
S       -2.8900994721    0.6202613689    0.0065096849
H       -0.5256630933   -0.7659571719   -2.3385410951
H       -0.5283472564   -0.8772931817   -0.4710833411
H       -1.0386663920    1.2187792526    1.2364841159
H       -1.9017247280   -1.0476302978    2.3335611601
11   
torsion grid (-75,)
C       -1.0220135042   -0.5517121570   -1.3926974661
N       -1.9490005932    0.3252868707   -1.4343887441
N       -1.8521118438    0.6322844159    1.4094524815
O       -3.7951148677   -0.4840373063    0.1826627205
O       -3.2903343002    2.0160371104   -0.1022809348
O       -1.2482513238   -0.6356262883    1.6508145514
S       -2.8739518577    0.6289228135    0.0034420221
H       -0.4799573204   -0.7299063185   -2.3244672534
H       -0.7330514586   -1.1293167299   -0.5123423474
H       -1.0864922950    1.2978976435    1.2784287504
H       -1.8336164210   -1.0320430583    2.3203167835
11   
torsion grid (-60,)
C       -1.0574132491   -0.5985045156   -1.3836648498
N       -1.8212291981    0.4264023291   -1.3791652670
N       -1.8777416822    0.6578765602    1.4318557136
O       -3.7446928094   -0.5158680842    0.1119780033
O       -3.3423074239    2.0038811789   -0.0850656391
O       -1.1662695233   -0.5613752109    1.6179666429
S       -2.8598617603    0.6367156405    0.0010321275
H       -0.3985328836   -0.7097846124   -2.2481783067
H       -1.0232483557   -1.3681468863   -0.6108491415
H       -1.1710812406    1.3918614182    1.3369828260
H       -1.7015176593   -1.0252708219    2.2860484544
11   
torsion grid (-45,)
C       -1.0933601563   -0.6327754949   -1.3636267296
N       -1.6890962094    0.4963867400   -1.2832513333
N       -1.8957917222    0.6803377036    1.4525558114
O       -3.6870212609   -0.5518589223    0.0624605376
O       -3.3941580599    1.9801102155   -0.0887344638
O       -1.0869164573   -0.4833770247    1.5762558457
S       -2.8454530183    0.6383525936    0.0016118596
H       -0.3139544859   -0.7241101680   -2.1233017163
H       -1.3333728431   -1.5134497000   -0.7643624123
H       -1.2477476435    1.4699135799    1.3864614902
H       -1.5770239288   -1.0217425272    2.2228716744
11   
torsion grid (-30,)
C       -1.1231905986   -0.6489096640   -1.3937284068
N       -1.5766883795    0.5296000262   -1.1918413939
N       -1.8996352113    0.7144039537    1.4806405422
O       -3.5947144175   -0.6073953644    0.0708073997
O       -3.4334276738    1.9356835515   -0.1177380973
O       -1.0672677193   -0.4327561778    1.6090139127
S       -2.8170614348    0.6271756244    0.0125031439
H       -0.2895146026   -0.7466702657   -2.0918840874
H       -1.5372778827   -1.5561854861   -0.9456232403
H       -1.2640192674    1.5138885059    1.4113838216
H       -1.5610985980   -0.9910477082    2.2354069693
11   
torsion grid (-15,)
C       -1.1469312378   -0.6566421281   -1.4754036423
N       -1.4663823756    0.5240962370   -1.1072423286
N       -1.9135592313    0.7477466458    1.5228933042
O       -3.5006164650   -0.6669104037    0.0969505780
O       -3.4334048456    1.8765387201   -0.1639448479
O       -1.0757195977   -0.3870527594    1.7152521939
S       -2.7722232681    0.5976681138    0.0296236426
H       -0.2974371269   -0.7548045631   -2.1537259900
H       -1.6850443452   -1.5590792330   -1.1694054179
H       -1.2821217117    1.5500786814    1.4492804332
H       -1.5904555806   -0.9338523154    2.3346626384
11   
torsion grid (0,)
C       -1.1718436447   -0.6582988589   -1.5709826130
N       -1.3599116282    0.4788619164   -1.0231737182
N       -1.9337026055    0.7771315796    1.5694093419
O       -3.4186227760   -0.7259262656    0.1332210073
O       -3.4021703159    1.8093581950   -0.2233248723
O       -1.0882505039   -0.3354598441    1.8441042917
S       -2.7205450419    0.5548902207    0.0503530944
H       -0.3192406778   -0.7535758591   -2.2455866257
H       -1.8165210226   -1.5277115428   -1.4054474437
H       -1.3103015584    1.5851186223    1.4901658561
H       -1.6227860105   -0.8666011679    2.4602022453
11   
torsion grid (15,)
C       -1.1959452980   -0.6513905742   -1.6627106019
N       -1.2617938377    0.3977086635   -0.9403497698
N       -1.9546565691    0.8007443660    1.6089812926
O       -3.3532233970   -0.7840216392    0.1812328866
O       -3.3521501236    1.7360235004   -0.2847824255
O       -1.1033350193   -0.2831448120    1.9679237416
S       -2.6692803845    0.5019750014    0.0727361979
H       -0.3405500169   -0.7439303259   -2.3341704132
H       -1.9372396523   -1.4572375882   -1.6381329330
H       -1.3422309741    1.6160549280    1.5216743021
H       -1.6534905130   -0.7949945243    2.5865382863
11   
torsion grid (30,)
C       -1.2169088054   -0.6347831212   -1.7385239894
N       -1.1828364526    0.2881391956   -0.8591631349
N       -1.9686334581    0.8236768498    1.6379901818
O       -3.3052379550   -0.8419196936    0.2472934128
O       -3.3024712464    1.6529022947   -0.3490834871
O       -1.1183684368   -0.2321859224    2.0755183002
S       -2.6269026022    0.4420746361    0.0968438287
H       -0.3520938567   -0.7326567354   -2.3972076576
H       -2.0457341061   -1.3408676404   -1.8578628314
H       -1.3590389435    1.6383923055    1.5289770875
H       -1.6856699227   -0.7249851731    2.6941588530
11   
torsion grid (45,)
C       -1.2344773726   -0.6098374419   -1.8027476138
N       -1.1245102575    0.1526400792   -0.7864443715
N       -1.9754625284    0.8418687106    1.6537388777
O       -3.2723514032   -0.9016960832    0.3254961262
O       -3.2560352203    1.5563625655   -0.4099300828
O       -1.1323527651   -0.1827514828    2.1702760097
S       -2.5917348296    0.3724500833    0.1212513740
H       -0.3548898099   -0.7304795230   -2.4378681779
H       -2.1398503594   -1.1663697240   -2.0682430139
H       -1.3675773495    1.6534038132    1.5168941681
H       -1.7146538901   -0.6478040014    2.7965172677
11   
torsion grid (60,)
C       -1.2466802750   -0.5779259774   -1.8528417728
N       -1.0916288661   -0.0029518522   -0.7248691850
N       -1.9734857954    0.8552747491    1.6545714756
O       -3.2520299896   -0.9643516825    0.4103153595
O       -3.2274339000    1.4472498810   -0.4615349484
O       -1.1439359037   -0.1352247855    2.2500908077
S       -2.5682798963    0.2954388583    0.1447112662
H       -0.3525474842   -0.7479327281   -2.4558138529
H       -2.2043055084   -0.9259058630   -2.2552278133
H       -1.3624968476    1.6571742947    1.4806669832
H       -1.7410713191   -0.5630578988    2.8888722438
11   
torsion grid (75,)
C       -1.2516183541   -0.5423979746   -1.8855747564
N       -1.0870867677   -0.1759382446   -0.6747331272
N       -1.9676139128    0.8600626326    1.6398904492
O       -3.2522661926   -1.0232411005    0.4952834195
O       -3.2139769484    1.3334707270   -0.5073256076
O       -1.1475575853   -0.0902272968    2.3059648123
S       -2.5591413926    0.2144583863    0.1648519426
H       -0.3561977652   -0.7907907109   -2.4587959675
H       -2.2185507019   -0.6272104301   -2.3934025516
H       -1.3585571544    1.6536955076    1.4266306509
H       -1.7513290105   -0.4740945004    2.9661512995
11   
torsion grid (90,)
C       -1.2481591350   -0.5015359259   -1.9011434622
N       -1.1137211722   -0.3488337339   -0.6413757268
N       -1.9559881895    0.8623111340    1.6112784994
O       -3.2667440117   -1.0758854458    0.5884594352
O       -3.2226706607    1.2186129615   -0.5449484149
O       -1.1487503195   -0.0507331415    2.3399811029
S       -2.5665573279    0.1337502617    0.1823134687
H       -0.3683648450   -0.8242768283   -2.4613275074
H       -2.1726213915   -0.3204393460   -2.4601585755
H       -1.3397963243    1.6355268765    1.3491553993
H       -1.7605224081   -0.3907098166    3.0167063449
11   
torsion grid (105,)
C       -1.2354566855   -0.4606304416   -1.8952008339
N       -1.1736982413   -0.5188640025   -0.6217956030
N       -1.9436733698    0.8562933710    1.5697715505
O       -3.3091354770   -1.1083171411    0.6790528935
O       -3.2436543012    1.1212921245   -0.5764281197
O       -1.1369938368   -0.0217728856    2.3389879263
S       -2.5939015553    0.0614166705    0.1943566526
H       -0.3785742206   -0.8431495122   -2.4531237838
H       -2.0776885878   -0.0441275532   -2.4583622531
H       -1.3279690275    1.6119103477    1.2600287103
H       -1.7431504828   -0.3162639820    3.0416534241
11   
torsion grid (120,)
C       -1.2144737482   -0.4189968921   -1.8686910818
N       -1.2588925354   -0.6700778751   -0.6179792129
N       -1.9301358808    0.8489055408    1.5185720456
O       -3.3649560255   -1.1227994440    0.7740621562
O       -3.2847878030    1.0362303675   -0.6021575990
O       -1.1179890296   -0.0035978557    2.3104310903
S       -2.6387863392   -0.0012371697    0.2029680413
H       -0.3753695826   -0.8349148570   -2.4297767241
H       -1.9559854930    0.1846362942   -2.4035616337
H       -1.3104935755    1.5773527307    1.1563428694
H       -1.7120257726   -0.2577138442    3.0387306123
11   
torsion grid (135,)
C       -1.1879672640   -0.3804188948   -1.8254582340
N       -1.3642079055   -0.8024722952   -0.6337185357
N       -1.9191257158    0.8377641444    1.4605816591
O       -3.4189414740   -1.1294433694    0.8609390455
O       -3.3413456449    0.9666231076   -0.6176122077
O       -1.0925004409    0.0074079154    2.2606798318
S       -2.6939204660   -0.0546866820    0.2072973537
H       -0.3642725912   -0.8193960903   -2.3918344140
H       -1.8146606282    0.3776545324   -2.3085921636
H       -1.3023039983    1.5411519919    1.0478371356
H       -1.6646496568   -0.2063973643    3.0188210929
11   
torsion grid (150,)
C       -1.1569019912   -0.3489310156   -1.7641993144
N       -1.4832246965   -0.9107292943   -0.6656046597
N       -1.9155712256    0.8299580844    1.3998732628
O       -3.4675407546   -1.1274485790    0.9417047043
O       -3.4165138116    0.9095255913   -0.6252928147
O       -1.0577128371    0.0160984340    2.1851623469
S       -2.7573660841   -0.0956852166    0.2096871201
H       -0.3501023447   -0.8096045341   -2.3378406804
H       -1.6495707486    0.5406084453   -2.1737481357
H       -1.3108175706    1.5131286931    0.9384138797
H       -1.5985737210   -0.1791336129    2.9707848548
11   
torsion grid (165,)
C       -1.1194766588   -0.3332562355   -1.6831343220
N       -1.6180951970   -0.9960363289   -0.7140648487
N       -1.9295232622    0.8251239300    1.3413905354
O       -3.5136962739   -1.1289281394    0.9990146773
O       -3.5075924956    0.8651681506   -0.6259200527
O       -1.0082719868    0.0290955862    2.0723723925
S       -2.8277830776   -0.1254021636    0.2088486197
H       -0.3469501382   -0.8243623049   -2.2782873918
H       -1.4346427276    0.6751864846   -1.9774017978
H       -1.3677089467    1.5170288360    0.8405136160
H       -1.4901550210   -0.1658308197    2.8956091358
11   
torsion grid (180,)
C       -1.0797960214   -0.3315317528   -1.5902526532
N       -1.7614170232   -1.0420349732   -0.7816327527
N       -1.9545902925    0.8266024624    1.2890980682
O       -3.5514025170   -1.1374981564    1.0347647099
O       -3.6150247060    0.8329105158   -0.6132561423
O       -0.9515675901    0.0489415396    1.9287052516
S       -2.8992832648   -0.1429535430    0.2065378405
H       -0.3631153942   -0.8491970876   -2.2308188704
H       -1.1739650182    0.7548131269   -1.7126936264
H       -1.4578983561    1.5477821129    0.7614299182
H       -1.3558356019   -0.1700472490    2.7870588202
