21   
torsion grid (-165,)
C       -2.6145056951   -1.2821271900   -1.2570813625
C        0.4311692919   -0.4529211634   -1.6440521430
C       -1.1581193992    1.3428484444   -0.6903252981
C        0.5876935845   -1.1638704257   -0.3004041838
C       -1.0221413421    0.8656720914    0.7627148383
C       -0.8999705372    0.3146598263   -1.8159914403
N       -1.9814982845   -0.6228060325   -2.1391202909
O        1.6338820871    1.0223394490    0.7992170079
O        0.4977703035   -0.6794277680    2.3407790104
S        0.5645993039    0.0383548629    1.0569744763
H       -3.3815153807   -1.9859008317   -1.5911626528
H       -2.4794164407   -1.2065626497   -0.1712539990
H        1.2579574152    0.2537674888   -1.7616754830
H        0.5138455199   -1.1918644007   -2.4474080828
H       -2.1608118149    1.7643106950   -0.8214316521
H       -0.4482871909    2.1633038510   -0.8359996426
H       -0.1964316621   -1.8966595700   -0.0951886469
H        1.5572309010   -1.6627662236   -0.2151352617
H       -1.0183367736    1.7136322657    1.4541064978
H       -1.7995408915    0.1723689318    1.0857700045
H       -0.7669578420    0.8987671909   -2.7321516974
21   
torsion grid (-150,)
C       -2.6992418700   -1.2110304940   -1.2853758551
C        0.4703171440   -0.4459465019   -1.6369555674
C       -1.1823342287    1.2902775552   -0.6783281244
C        0.6278928960   -1.1617298478   -0.2971569480
C       -1.0038758585    0.8257761107    0.7767627859
C       -0.8874864120    0.2768826607   -1.8089451994
N       -1.8968545172   -0.7293618069   -2.1437614115
O        1.6489459205    1.0551608275    0.7708142412
O        0.5817949216   -0.6607942722    2.3432811752
S        0.6089499063    0.0468426905    1.0527983797
H       -3.3940083031   -1.9909409970   -1.6072703690
H       -2.7843545578   -0.8937103544   -0.2392964020
H        1.2764832906    0.2859623799   -1.7394853452
H        0.5777116488   -1.1750142982   -2.4456436843
H       -2.2056076472    1.6656443415   -0.7935753341
H       -0.5156821512    2.1443886942   -0.8328030845
H       -0.1663701871   -1.8846797569   -0.0917584505
H        1.5929606675   -1.6689728812   -0.2126944986
H       -1.0194459640    1.6770220951    1.4636813927
H       -1.7464887788    0.1036394770    1.1177200816
H       -0.7666907673    0.8557032202   -2.7308277842
21   
torsion grid (-135,)
C       -2.7976427378   -1.1252738993   -1.2912353989
C        0.5061426814   -0.4398716025   -1.6336472927
C       -1.1838436517    1.2470799041   -0.6762898306
C        0.6996314712   -1.1507307668   -0.2950676065
C       -1.0060349064    0.7682546804    0.7739148850
C       -0.8806822700    0.2270618657   -1.7953581483
N       -1.8502453362   -0.8305921655   -2.0835790822
O        1.6387149625    1.1017520071    0.7796616122
O        0.6301970673   -0.6527872530    2.3476703861
S        0.6359993490    0.0546240259    1.0566173460
H       -3.4648894471   -1.9467696780   -1.5635519970
H       -3.0358630503   -0.5980751335   -0.3595164358
H        1.2826289066    0.3227700788   -1.7413320377
H        0.6340190267   -1.1652446024   -2.4422229143
H       -2.2066221087    1.6249577160   -0.7905757976
H       -0.5177620876    2.1024449265   -0.8258942124
H       -0.0670887211   -1.9026315015   -0.0895656230
H        1.6843535516   -1.6194347290   -0.2160838436
H       -1.0710566972    1.6042190030    1.4763119446
H       -1.7155250951    0.0017746242    1.0882593816
H       -0.7978157546    0.7815913417   -2.7373353366
21   
torsion grid (-120,)
C       -2.8755657618   -1.0503229626   -1.2893827584
C        0.5344581878   -0.4306134583   -1.6362513612
C       -1.1749008972    1.2175829392   -0.6744509436
C        0.7666782013   -1.1349582661   -0.2992331288
C       -1.0151349198    0.7162810635    0.7684845026
C       -0.8776320875    0.1808202142   -1.7764934223
N       -1.8200085291   -0.9220196489   -1.9832678273
O        1.6167593903    1.1396268429    0.8040402403
O        0.6555046701   -0.6622317598    2.3471599612
S        0.6484477387    0.0558731782    1.0619351230
H       -3.5322589775   -1.8989199279   -1.4958354114
H       -3.2091410977   -0.3583198738   -0.5056224578
H        1.2832027178    0.3574830482   -1.7570198616
H        0.6749440084   -1.1559212313   -2.4426930191
H       -2.1879919613    1.6186661031   -0.7939826444
H       -0.4914280996    2.0602205083   -0.8174790159
H        0.0347982063   -1.9220613792   -0.0991156990
H        1.7724528444   -1.5571347222   -0.2238547676
H       -1.1268698942    1.5297953808    1.4907841396
H       -1.7016508792   -0.0866072560    1.0417878780
H       -0.8580477079    0.7078800497   -2.7383295280
21   
torsion grid (-105,)
C       -2.9336716332   -1.0000168770   -1.3022128959
C        0.5536424019   -0.4204060942   -1.6394169172
C       -1.1649023615    1.1979802370   -0.6679493404
C        0.8166625961   -1.1208315671   -0.3051303210
C       -1.0168884601    0.6851096164    0.7702132692
C       -0.8778995884    0.1408290106   -1.7531508657
N       -1.7947571755   -1.0009706950   -1.8631828336
O        1.6053707404    1.1599502950    0.8285905496
O        0.6723224392   -0.6791113125    2.3449696231
S        0.6586504532    0.0527144099    1.0675368372
H       -3.5800491519   -1.8704614025   -1.4379219730
H       -3.3403452691   -0.1822816750   -0.6922528507
H        1.2778959769    0.3888185928   -1.7700285292
H        0.7047883848   -1.1441042994   -2.4454122933
H       -2.1692072312    1.6183464161   -0.7900267442
H       -0.4668919748    2.0283040087   -0.8123482210
H        0.1120846449   -1.9340095798   -0.1118143994
H        1.8369636066   -1.5070338724   -0.2326656120
H       -1.1508972914    1.4851669827    1.5034828706
H       -1.6944940551   -0.1343150835    1.0178998563
H       -0.9317618994    0.6414417310   -2.7279992110
21   
torsion grid (-90,)
C       -2.9879795872   -0.9647040435   -1.3551641462
C        0.5598308406   -0.4185271859   -1.6364859722
C       -1.1603805454    1.1804705538   -0.6460831146
C        0.8550944868   -1.1096548713   -0.3035899502
C       -1.0032915281    0.6652348375    0.7887378191
C       -0.8839450257    0.1091905889   -1.7210161090
N       -1.7818163123   -1.0581770497   -1.7394280051
O        1.6088432085    1.1839573919    0.8295534194
O        0.7212135917   -0.6762025329    2.3479238080
S        0.6845423876    0.0581857863    1.0724037702
H       -3.6232366057   -1.8514159332   -1.4190980729
H       -3.4591153083   -0.0541862724   -0.9593185197
H        1.2665905347    0.4029730297   -1.7852239182
H        0.7096858729   -1.1454221664   -2.4400658379
H       -2.1647552669    1.6012353361   -0.7598652520
H       -0.4628546187    2.0093674464   -0.8001873303
H        0.1680652389   -1.9365279034   -0.1055054380
H        1.8837866897   -1.4745644603   -0.2407175511
H       -1.1445234100    1.4590855738    1.5272494604
H       -1.6728719837   -0.1637972562    1.0284440043
H       -0.9962675068    0.5885979725   -2.7013830660
21   
torsion grid (-75,)
C       -3.0419518337   -0.9356331235   -1.4489973353
C        0.5483062507   -0.4256363358   -1.6253029304
C       -1.1653291259    1.1619153936   -0.6050156979
C        0.8869460912   -1.1013278933   -0.2946981232
C       -0.9733527215    0.6496776738    0.8260680860
C       -0.9025647487    0.0857236941   -1.6787027401
N       -1.7927471767   -1.0905739982   -1.6121574675
O        1.6287851107    1.2126310958    0.8056127813
O        0.8082216224   -0.6513365730    2.3564866668
S        0.7296709815    0.0726844358    1.0768044155
H       -3.6786329358   -1.8233704071   -1.4292145418
H       -3.5491661932    0.0335285524   -1.3349757757
H        1.2423302351    0.4011834509   -1.8027999669
H        0.6865947951   -1.1602048507   -2.4244482133
H       -2.1794176357    1.5632539305   -0.6979680640
H       -0.4828062026    1.9999218566   -0.7762757097
H        0.2161349648   -1.9359488324   -0.0761277706
H        1.9223879426   -1.4499606342   -0.2543000906
H       -1.1148309678    1.4408252962    1.5673089634
H       -1.6264838483   -0.1904529192    1.0731289196
H       -1.0454794516    0.5482190297   -2.6632454076
21   
torsion grid (-60,)
C       -3.0762139412   -0.9168124751   -1.5611495451
C        0.5230186355   -0.4363995114   -1.6112057859
C       -1.1757012469    1.1478993763   -0.5528623365
C        0.9062160765   -1.0965767510   -0.2848927074
C       -0.9390017971    0.6399795615    0.8730366433
C       -0.9299488144    0.0727480193   -1.6302192069
N       -1.8217543520   -1.0957377688   -1.4829108528
O        1.6534715654    1.2384271080    0.7659354496
O        0.9086035207   -0.6182903574    2.3624300377
S        0.7784348896    0.0898824618    1.0780618851
H       -3.7395088154   -1.7779892195   -1.4517419490
H       -3.5570973343    0.0548679244   -1.7525007871
H        1.2080389313    0.3907798687   -1.8199689932
H        0.6424704811   -1.1787785317   -2.4066979984
H       -2.2030178539    1.5204736618   -0.6220451722
H       -0.5135261139    1.9982156538   -0.7426383971
H        0.2479118411   -1.9329098125   -0.0388643418
H        1.9454930233   -1.4356795595   -0.2725220898
H       -1.0748216710    1.4295648334    1.6169088455
H       -1.5730333306   -0.2107061762    1.1333517495
H       -1.0934185411    0.5221605362   -2.6183244493
21   
torsion grid (-45,)
C       -3.0870353293   -0.9302288834   -1.6671184866
C        0.4867958323   -0.4450040219   -1.6001140157
C       -1.1780094111    1.1519308684   -0.5022324804
C        0.9088391251   -1.0945699049   -0.2802299628
C       -0.9053987230    0.6484585170    0.9185798838
C       -0.9634332535    0.0732046599   -1.5819813754
N       -1.8625385139   -1.0727293445   -1.3628159841
O        1.6819648037    1.2484276690    0.7348163106
O        0.9856986461   -0.6008417179    2.3615317843
S        0.8171649626    0.1007545309    1.0781261388
H       -3.7797673701   -1.7555456021   -1.4874816795
H       -3.5061934378   -0.0190597774   -2.1226629013
H        1.1668364843    0.3787921045   -1.8370185791
H        0.5827361270   -1.1933227311   -2.3936745452
H       -2.2106550768    1.5142820241   -0.5505159238
H       -0.5223949990    2.0025700098   -0.7122432050
H        0.2599104877   -1.9296344526   -0.0082615880
H        1.9493037911   -1.4298917251   -0.2955768474
H       -1.0218561482    1.4405757417    1.6630288006
H       -1.5317856251   -0.2025540637    1.1950358452
H       -1.1535672195    0.5195049411   -2.5680111908
21   
torsion grid (-30,)
C       -3.0762421889   -0.9778231649   -1.7661661134
C        0.4393487939   -0.4466542701   -1.5908382231
C       -1.1716311659    1.1777832933   -0.4522310274
C        0.8920422007   -1.0968958220   -0.2809908386
C       -0.8700764189    0.6741925209    0.9622773613
C       -1.0024280548    0.0933552041   -1.5343399591
N       -1.9126358687   -1.0246274798   -1.2598886481
O        1.7199716952    1.2355680481    0.7114345168
O        1.0381549202   -0.6017208363    2.3573619113
S        0.8470791082    0.1013191152    1.0780553986
H       -3.7843543303   -1.7812490089   -1.5508462144
H       -3.4215882867   -0.1702956263   -2.4310369655
H        1.1215266797    0.3689404825   -1.8493170974
H        0.5055484496   -1.1970767876   -2.3857274464
H       -2.2011985282    1.5511853934   -0.4771441730
H       -0.5096500097    2.0180143222   -0.6832144651
H        0.2469065860   -1.9274450854    0.0115880805
H        1.9303293431   -1.4365664602   -0.3251289247
H       -0.9539241014    1.4698170437    1.7074158087
H       -1.5016978239   -0.1669619527    1.2552498559
H       -1.2188658467    0.5422599128   -2.5153328388
21   
torsion grid (-15,)
C       -3.0413087247   -1.0447518836   -1.8628984043
C        0.3816324153   -0.4454194307   -1.5804986149
C       -1.1647191504    1.2149219422   -0.4008865069
C        0.8553368990   -1.1037423973   -0.2819477386
C       -0.8315460650    0.7075742052    1.0050948119
C       -1.0457093850    0.1283594931   -1.4883097385
N       -1.9728585387   -0.9611690019   -1.1819964693
O        1.7630986343    1.2122034736    0.6737779427
O        1.0923681535   -0.6017408922    2.3492320116
S        0.8760491988    0.1001842909    1.0731392059
H       -3.7572587133   -1.8377946121   -1.6354101236
H       -3.2934595922   -0.3603067348   -2.6880205659
H        1.0732293114    0.3563586684   -1.8566084391
H        0.4117832560   -1.1960721963   -2.3774805607
H       -2.1888409036    1.6035380920   -0.3960323874
H       -0.4974470691    2.0447291375   -0.6532034839
H        0.2011579852   -1.9188709925    0.0327227214
H        1.8843601770   -1.4659156472   -0.3549911831
H       -0.8791860007    1.5049290219    1.7516221530
H       -1.4708562407   -0.1213960608    1.3148804074
H       -1.2792104944    0.5895003664   -2.4610050395
21   
torsion grid (0,)
C       -2.9838032707   -1.1203532293   -1.9360648447
C        0.3191888392   -0.4394441962   -1.5744225519
C       -1.1548839956    1.2589709902   -0.3557080330
C        0.8088121946   -1.1115070152   -0.2888227391
C       -0.7989957392    0.7409931488    1.0404224496
C       -1.0899414611    0.1727002434   -1.4475912826
N       -2.0402028109   -0.8879918213   -1.1188072831
O        1.7978664066    1.1819016275    0.6393814828
O        1.1274258633   -0.6157964097    2.3331617340
S        0.8940652094    0.0926462580    1.0639238364
H       -3.7049019335   -1.9089239811   -1.7092732481
H       -3.1229555734   -0.5665774356   -2.8776708059
H        1.0237825263    0.3462777775   -1.8636591368
H        0.3115246959   -1.1871816588   -2.3747379830
H       -2.1691214279    1.6712800980   -0.3239462326
H       -0.4756405262    2.0739713186   -0.6237968877
H        0.1443473336   -1.9108200736    0.0446345673
H        1.8265053238   -1.4984291972   -0.3886543420
H       -0.8078532295    1.5376500549    1.7891842006
H       -1.4508419083   -0.0727160640    1.3637601700
H       -1.3377613640    0.6484684069   -2.4101330720
21   
torsion grid (15,)
C       -2.9049322699   -1.2018785723   -1.9756181559
C        0.2573468826   -0.4236627579   -1.5764788912
C       -1.1418323413    1.3100309745   -0.3210891791
C        0.7529067568   -1.1181832844   -0.3047673954
C       -0.7735801517    0.7732471940    1.0646500218
C       -1.1313658468    0.2270651831   -1.4175030272
N       -2.1083509864   -0.8050396811   -1.0699835490
O        1.8285273976    1.1367912582    0.6197201046
O        1.1348922212   -0.6508291564    2.3140377114
S        0.8988224694    0.0739089787    1.0543033871
H       -3.6273795908   -1.9874065476   -1.7426650966
H       -2.9188898220   -0.7919671628   -2.9977004171
H        0.9779509202    0.3447087286   -1.8728408562
H        0.2135536282   -1.1645905837   -2.3820709027
H       -2.1438312998    1.7486635495   -0.2647907240
H       -0.4475914420    2.1087573258   -0.5994010436
H        0.0738754860   -1.9013901389    0.0378421961
H        1.7570623428   -1.5327832820   -0.4277481189
H       -0.7453017886    1.5642370784    1.8189248545
H       -1.4443418853   -0.0227729933    1.3930258802
H       -1.3909255278    0.7182127316   -2.3686668005
21   
torsion grid (30,)
C       -2.8131831879   -1.2805437883   -1.9855756964
C        0.1984322948   -0.4017702907   -1.5845676403
C       -1.1294689481    1.3597514787   -0.2936092522
C        0.6915307801   -1.1242355886   -0.3275238402
C       -0.7554787607    0.8006169798    1.0814525436
C       -1.1686526346    0.2847364052   -1.3966442287
N       -2.1800567048   -0.7169079925   -1.0401135151
O        1.8520131884    1.0848486303    0.6002936079
O        1.1241528551   -0.6955171313    2.2885572328
S        0.8936063741    0.0499699322    1.0401082466
H       -3.5485190377   -2.0529334810   -1.7490866989
H       -2.6753323230   -1.0285942476   -3.0490120131
H        0.9368589206    0.3496658208   -1.8805113139
H        0.1239503394   -1.1310058253   -2.3986673204
H       -2.1184154066    1.8238553672   -0.2164377000
H       -0.4187650911    2.1423886982   -0.5759977248
H       -0.0035640035   -1.8919024984    0.0187490503
H        1.6812352443   -1.5663566119   -0.4699467910
H       -0.6922820976    1.5827500621    1.8427815180
H       -1.4460643220    0.0224567645    1.4118981208
H       -1.4353823268    0.7938461586   -2.3349665868
21   
torsion grid (45,)
C       -2.7250603151   -1.3471867305   -1.9664197773
C        0.1490365777   -0.3770055182   -1.5993491105
C       -1.1170853533    1.4028456054   -0.2741009838
C        0.6355047913   -1.1268446450   -0.3553213157
C       -0.7476756931    0.8139304534    1.0892966990
C       -1.1974238316    0.3427837694   -1.3885186512
N       -2.2559133937   -0.6195125117   -1.0376162938
O        1.8624206500    1.0405477867    0.5855482637
O        1.1068316725   -0.7402368071    2.2614587056
S        0.8823144134    0.0257540073    1.0242757051
H       -3.4909477624   -2.0881148772   -1.7261496919
H       -2.4188334351   -1.2721436998   -3.0219023100
H        0.9048160808    0.3582117661   -1.8922120098
H        0.0531028978   -1.0939187339   -2.4220402221
H       -2.0933570208    1.8898697950   -0.1812346236
H       -0.3883984211    2.1706039582   -0.5512032627
H       -0.0742636325   -1.8817813395   -0.0099087654
H        1.6114415879   -1.5933008122   -0.5140040071
H       -0.6634224451    1.5802426533    1.8644810697
H       -1.4552505641    0.0464306261    1.4097483687
H       -1.4612216512    0.8739440960   -2.3136477889
21   
torsion grid (60,)
C       -2.6529950369   -1.4043444864   -1.9108921521
C        0.1186727342   -0.3437061345   -1.6231168249
C       -1.1043561183    1.4387991948   -0.2656979187
C        0.5925342770   -1.1248071119   -0.3932722360
C       -0.7525721267    0.8146908387    1.0865325804
C       -1.2131575098    0.3990593111   -1.3961208877
N       -2.3259162524   -0.5148511955   -1.0661160356
O        1.8624025609    0.9977279942    0.5930058103
O        1.0680943815   -0.8017749298    2.2306451334
S        0.8609890969   -0.0051333606    1.0097755918
H       -3.4745988865   -2.0833065753   -1.6710142900
H       -2.1753184043   -1.5364932539   -2.8939399323
H        0.8875752770    0.3836264388   -1.9011684469
H        0.0207374586   -1.0420532471   -2.4607940941
H       -2.0691847694    1.9458346874   -0.1646042029
H       -0.3558809153    2.1928797003   -0.5268669288
H       -0.1284103163   -1.8752989207   -0.0609635090
H        1.5596675346   -1.6060763659   -0.5614134304
H       -0.6565311994    1.5619439273    1.8787611431
H       -1.4785179476    0.0561962632    1.3882618359
H       -1.4666186854    0.9522060677   -2.3098212073
21   
torsion grid (75,)
C       -2.5943121728   -1.4512636368   -1.8191484488
C        0.1044671282   -0.3010743709   -1.6548254065
C       -1.0954250781    1.4681926567   -0.2663596145
C        0.5627404004   -1.1202037467   -0.4439333583
C       -0.7681368791    0.8055693495    1.0736239881
C       -1.2205329392    0.4520946927   -1.4158393126
N       -2.3830761451   -0.4104088566   -1.1240737187
O        1.8560656608    0.9507283641    0.6176632964
O        1.0057341294   -0.8789103006    2.1931823499
S        0.8306936855   -0.0437433443    0.9932571519
H       -3.4764220716   -2.0560716814   -1.5957270486
H       -1.9604447878   -1.7970236956   -2.6487373688
H        0.8809360315    0.4287016649   -1.9037120520
H        0.0200723526   -0.9708916899   -2.5164009768
H       -2.0500194082    1.9927914893   -0.1619843892
H       -0.3271024980    2.2094148014   -0.5052688188
H       -0.1638794443   -1.8756770959   -0.1361660693
H        1.5277447541   -1.6039582189   -0.6174731445
H       -0.6650971230    1.5312120996    1.8848834416
H       -1.5120879354    0.0552125799    1.3526441467
H       -1.4553025073    1.0204277814   -2.3244246491
21   
torsion grid (90,)
C       -2.5469786578   -1.4728056390   -1.7197519045
C        0.0977615684   -0.2691164987   -1.6862549043
C       -1.0922570402    1.4849324447   -0.2706284798
C        0.5441431322   -1.1176469624   -0.4905983606
C       -0.7900659065    0.7858332368    1.0565454163
C       -1.2195809474    0.4958900058   -1.4435312347
N       -2.4245533819   -0.3176473125   -1.2080430786
O        1.8405973674    0.9169510978    0.6379409407
O        0.9528090003   -0.9430100995    2.1564618059
S        0.8020596964   -0.0771987583    0.9752472657
H       -3.4739882536   -2.0233731381   -1.5424792008
H       -1.7909645702   -1.9761536831   -2.3384516465
H        0.8816954684    0.4602202647   -1.9118120405
H        0.0200472141   -0.9160289768   -2.5661543146
H       -2.0395302409    2.0220924237   -0.1671572486
H       -0.3079406985    2.2170738311   -0.4834938529
H       -0.1835001215   -1.8797796935   -0.2028822787
H        1.5098185896   -1.5991236444   -0.6672222992
H       -0.6894103359    1.4901650850    1.8866686832
H       -1.5447717108    0.0369352732    1.3105861688
H       -1.4287750191    1.0869095854   -2.3438094381
21   
torsion grid (105,)
C       -2.5267349806   -1.4689412871   -1.6386631561
C        0.0976473897   -0.2566618572   -1.7117543984
C       -1.0973798736    1.4818199850   -0.2744399914
C        0.5446305166   -1.1139773682   -0.5207561310
C       -0.8123639932    0.7560728813    1.0416728049
C       -1.2109853231    0.5245760403   -1.4777751003
N       -2.4530846917   -0.2425019917   -1.3189080478
O        1.8205336861    0.9120766438    0.6507006443
O        0.9325591278   -0.9788984687    2.1298386047
S        0.7865163884   -0.0945767691    0.9618331916
H       -3.4844793672   -1.9806437147   -1.5170860704
H       -1.7025036036   -2.0694299158   -2.0463110870
H        0.8881557291    0.4670966302   -1.9326116310
H        0.0151324703   -0.8982989624   -2.5959094463
H       -2.0430961488    2.0218803980   -0.1736058977
H       -0.3066245950    2.2144224942   -0.4600385633
H       -0.1739664547   -1.8861667319   -0.2391612045
H        1.5146045544   -1.5858709042   -0.7002027781
H       -0.7255446139    1.4454034974    1.8858906001
H       -1.5650993085   -0.0016152398    1.2748197156
H       -1.3813017558    1.1593534827   -2.3563520599
21   
torsion grid (120,)
C       -2.5386384796   -1.4385237983   -1.5679302847
C        0.1057128796   -0.2578875570   -1.7332003438
C       -1.1098952674    1.4639364502   -0.2767875170
C        0.5681092453   -1.1078595610   -0.5404602983
C       -0.8367255431    0.7124196631    1.0263802989
C       -1.1931080909    0.5442906945   -1.5156771039
N       -2.4670815963   -0.1764987746   -1.4482978241
O        1.7953175273    0.9339079746    0.6564092335
O        0.9410153442   -0.9911658691    2.1111194050
S        0.7824199013   -0.0984736564    0.9511731561
H       -3.5219410286   -1.9108158422   -1.5043553911
H       -1.6906414208   -2.1078766937   -1.7610322859
H        0.9015252006    0.4553163089   -1.9691090585
H        0.0068623457   -0.9101535978   -2.6085782559
H       -2.0606693261    1.9959279222   -0.1810307319
H       -0.3216831426    2.2065593677   -0.4301897952
H       -0.1267632314   -1.9011181488   -0.2602434503
H        1.5498340556   -1.5541800568   -0.7221780987
H       -0.7807199972    1.3845288875    1.8869789224
H       -1.5749401869   -0.0673836855    1.2317395345
H       -1.3113740362    1.2301688144   -2.3635501130
21   
torsion grid (135,)
C       -2.5093167278   -1.4789469451   -1.4696533229
C        0.2674094902   -0.5392584653   -1.5773744751
C       -1.0493085168    1.4751772984   -0.6678520858
C        0.5364361039   -1.1311736984   -0.1841055699
C       -1.0199606974    0.9656934025    0.7723319850
C       -0.9828912241    0.3534771225   -1.7318718242
N       -2.3048923769   -0.2704248929   -1.8011674073
O        1.6435370229    1.0951761930    0.7768105520
O        0.5120075083   -0.5084050388    2.4206731699
S        0.5617379583    0.1453167896    1.1025405781
H       -3.5302320070   -1.8651494170   -1.5225161045
H       -1.7368319357   -2.1951424674   -1.1643693073
H        1.1363761028    0.0662714056   -1.8528993016
H        0.2214113857   -1.3641107452   -2.2981041463
H       -1.9713918893    2.0421385876   -0.8247397228
H       -0.2070204516    2.1568773963   -0.8160900686
H       -0.2001986319   -1.8645084470    0.1464966271
H        1.5262761930   -1.5941688080   -0.1365067655
H       -1.0785215735    1.7805705222    1.4990608277
H       -1.8082796828    0.2402007064    0.9906536113
H       -0.8897308978    0.8955083428   -2.6801372512
21   
torsion grid (150,)
C       -2.5504628668   -1.3945636567   -1.3784310088
C        0.3037041166   -0.5386705229   -1.6010007912
C       -1.0671919366    1.4465144405   -0.6820902896
C        0.5880203573   -1.1334008466   -0.2116171539
C       -1.0520565163    0.9061011000    0.7461740844
C       -0.9489391996    0.3525696421   -1.7706621688
N       -2.2597399249   -0.2826201894   -1.9185471533
O        1.6036369850    1.1108642496    0.7992794871
O        0.4891554165   -0.5471980855    2.4007649300
S        0.5457167915    0.1245424834    1.0921763744
H       -3.5663176414   -1.7789158985   -1.5004342497
H       -1.8597887665   -2.0329172732   -0.8148290454
H        1.1694314326    0.0704575865   -1.8789969763
H        0.2553544763   -1.3631017402   -2.3215940158
H       -1.9989111132    1.9962392837   -0.8456459419
H       -0.2396760040    2.1521292495   -0.7979602228
H       -0.1092524266   -1.9112868669    0.1012494416
H        1.5998302906   -1.5463985522   -0.1626056465
H       -1.1465462456    1.7033615066    1.4886226612
H       -1.8244025323    0.1561812040    0.9380131005
H       -0.8149495404    0.9152317282   -2.7006854171
21   
torsion grid (165,)
C       -2.5721838767   -1.3342261619   -1.2833925875
C        0.3503652044   -0.5138143307   -1.6275436692
C       -1.0884287832    1.4174121660   -0.6999252576
C        0.6101009729   -1.1432969166   -0.2513875318
C       -1.0675475372    0.8734157404    0.7279991406
C       -0.9241307696    0.3443991240   -1.8009772203
N       -2.1939246627   -0.3613475084   -2.0071495530
O        1.5835404608    1.0843099628    0.8304924991
O        0.4469571329   -0.6168669842    2.3723583813
S        0.5268876361    0.0847814957    1.0804091886
H       -3.5506895609   -1.7776892517   -1.4860719404
H       -2.0010023790   -1.7954142034   -0.4685078814
H        1.2046257350    0.1288764079   -1.8629522446
H        0.3404399330   -1.3142671928   -2.3754656566
H       -2.0339218469    1.9439304984   -0.8644725658
H       -0.2823808436    2.1496262588   -0.8046731683
H       -0.0812413444   -1.9425106810    0.0182155448
H        1.6270044317   -1.5422260505   -0.1894409116
H       -1.1532924191    1.6733266831    1.4689175893
H       -1.8449704784    0.1323749475    0.9290434638
H       -0.7795918528    0.9143248383   -2.7242956210
21   
torsion grid (180,)
C       -2.5804746609   -1.3112720705   -1.2432122836
C        0.3934078661   -0.4781102985   -1.6426311957
C       -1.1209975871    1.3858663920   -0.7018574163
C        0.5948412988   -1.1572682644   -0.2851783242
C       -1.0530611815    0.8712789256    0.7386491618
C       -0.9096980628    0.3341431298   -1.8137330435
N       -2.0946227791   -0.4922870968   -2.0839629616
O        1.6005581900    1.0411517724    0.8248715848
O        0.4467336067   -0.6647405454    2.3486103732
S        0.5320849206    0.0519750782    1.0655531253
H       -3.4655661229   -1.8826966343   -1.5360419671
H       -2.2009414774   -1.5124296052   -0.2335434623
H        1.2351035288    0.2010375107   -1.8104898929
H        0.4353895962   -1.2430601412   -2.4251825910
H       -2.0924583253    1.8677570327   -0.8546828796
H       -0.3554328287    2.1586225541   -0.8227851834
H       -0.1411465730   -1.9305210371   -0.0585614718
H        1.5910730554   -1.6024811208   -0.2069746689
H       -1.0882086483    1.6949615169    1.4577439636
H       -1.8405855787    0.1613936544    0.9972128936
H       -0.7693830845    0.9117980894   -2.7326237623
