25   
torsion grid (-165,)
C        0.8901743401    0.4409033281   -0.4903754773
C       -0.0223786826    2.7545744405   -1.0539943815
C        0.1153314142    0.9354758649   -2.8565863887
C       -1.5102279874    2.5208383456   -0.7639705082
C       -1.3369698156    0.4922637558   -2.6635713109
C        0.7467198728    1.5229982400   -1.5708948170
C        2.1018584726   -1.6003374255    0.1833837415
N        1.8187046674   -0.5244097068   -0.7606890959
O        0.1958667924    0.4070526350    0.5271904872
O       -2.2004157685    2.9242719734   -3.3080164762
O       -3.7166578869    1.4496592364   -1.8684163895
S       -2.3716957422    1.9210326520   -2.2363031575
H        0.0706186662    3.5550375357   -1.7945234715
H        0.4422950493    3.1064345949   -0.1280708513
H        0.6961458590    0.0751945385   -3.2050883430
H        0.1483836074    1.6906775223   -3.6477846433
H       -1.6649594245    1.7814666812    0.0215822008
H       -2.0181333220    3.4532452533   -0.5020183061
H       -1.7698257078    0.0938649566   -3.5851703638
H       -1.4625089323   -0.2404472833   -1.8621151197
H        1.7569588842    1.8601804058   -1.8350421821
H        2.6051517752   -2.4143721484   -0.3430816921
H        2.7339275593   -1.2593263408    1.0115154045
H        1.1621573447   -1.9663222286    0.5997755357
H        2.4550554700   -0.3811996979   -1.5332681723
25   
torsion grid (-150,)
C        0.8349857225    0.3585995662   -0.5276696206
C       -0.0236223716    2.7100592120   -1.0405574384
C        0.0646297076    0.9004908833   -2.8648513799
C       -1.5209786438    2.5222378636   -0.7671641573
C       -1.4055346500    0.5127372479   -2.6848710434
C        0.7164039532    1.4670473846   -1.5783051740
C        2.2127095415   -1.5677496898    0.2161134082
N        1.9431281545   -0.4309402211   -0.6551840395
O       -0.0291607254    0.1543955833    0.3284161840
O       -2.1463088426    2.9887708395   -3.3174896427
O       -3.7560574212    1.5719620759   -1.9232003185
S       -2.3832968320    1.9810458313   -2.2618995688
H        0.0997024371    3.5207880017   -1.7654030943
H        0.4472514089    3.0338343569   -0.1066177302
H        0.6189414292    0.0186342375   -3.2042134530
H        0.1329093642    1.6523394293   -3.6570210944
H       -1.7112165388    1.7706234699   -0.0014717972
H       -1.9979156180    3.4672347471   -0.4923305808
H       -1.8444111775    0.1346603140   -3.6122276604
H       -1.5661022676   -0.2132470137   -1.8844760693
H        1.7283246401    1.7906836751   -1.8502839020
H        2.4271367102   -2.4625680775   -0.3767780665
H        3.0602767336   -1.3666766320    0.8808790502
H        1.3238185893   -1.7421286735    0.8223937115
H        2.6399632016   -0.1740772830   -1.3413203007
25   
torsion grid (-135,)
C        0.7967209257    0.2579438772   -0.6197166347
C        0.0191789138    2.6484356445   -1.0580637438
C       -0.0072499683    0.8787332631   -2.9245527512
C       -1.4736358112    2.5007094195   -0.7419287896
C       -1.4912705535    0.5534403480   -2.7311474706
C        0.6981536401    1.3897698104   -1.6436101079
C        2.2740606780   -1.5050202290    0.3104469827
N        2.0060525677   -0.3754361139   -0.5708828258
O       -0.1626551418   -0.0908665096    0.0747155139
O       -2.1455426991    3.0799460947   -3.2554281469
O       -3.7742468719    1.6794340007   -1.8668636923
S       -2.3951942802    2.0432516806   -2.2307850964
H        0.1444548382    3.4669900770   -1.7738179577
H        0.5332019870    2.9428308717   -0.1365339783
H        0.5013471396   -0.0206689606   -3.2896571932
H        0.0849980383    1.6423610935   -3.7030623341
H       -1.6691123718    1.7259107149   -0.0008298407
H       -1.9104955756    3.4498120956   -0.4188704269
H       -1.9618681176    0.2365647889   -3.6659804754
H       -1.6683773003   -0.1954326355   -1.9569895604
H        1.7123166076    1.6850932336   -1.9371337742
H        2.6775916329   -2.3486576818   -0.2585914613
H        2.9839537763   -1.2323001578    1.0991946038
H        1.3309701650   -1.7997249514    0.7707506083
H        2.7622242860   -0.0143626456   -1.1361952256
25   
torsion grid (-120,)
C        0.7756688681    0.1539872105   -0.7282098153
C        0.0689403239    2.5666916128   -1.0729228863
C       -0.0793628174    0.8675777322   -3.0013889735
C       -1.4147330665    2.4449871056   -0.7095969473
C       -1.5735406972    0.6021833790   -2.7904825766
C        0.6827796268    1.3064731808   -1.7277690128
C        2.3131767197   -1.4143700336    0.4260747213
N        2.0351290227   -0.3196415218   -0.4952533754
O       -0.2237346502   -0.3220578247   -0.1802082129
O       -2.1301236307    3.1792762836   -3.1683300444
O       -3.7801882037    1.7808493799   -1.8038301658
S       -2.3969211209    2.1008819979   -2.1919512315
H        0.1909675794    3.4068295926   -1.7637007949
H        0.6268241101    2.8129546192   -0.1624431616
H        0.3790418901   -0.0419020768   -3.4058896138
H        0.0328483490    1.6504560893   -3.7579120080
H       -1.6128147142    1.6350912786   -0.0067585023
H       -1.8115792728    3.3861126818   -0.3187351451
H       -2.0764304286    0.3586893658   -3.7305777467
H       -1.7658566266   -0.1773549341   -2.0521869807
H        1.6958772343    1.5789926529   -2.0454915270
H        2.8718753116   -2.2096123592   -0.0778565232
H        2.8877916205   -1.0654814052    1.2911759999
H        1.3578775868   -1.8097992292    0.7712842624
H        2.8120634907    0.1269423510   -0.9625735168
25   
torsion grid (-105,)
C        0.7701828217    0.0557988312   -0.8447917796
C        0.1280001506    2.4824675799   -1.0951323534
C       -0.1415256582    0.8653913268   -3.0809727459
C       -1.3413013372    2.3724932275   -0.6764086739
C       -1.6406495266    0.6504385591   -2.8442437580
C        0.6760251802    1.2289001358   -1.8205230755
C        2.3119235008   -1.3091576404    0.5402504420
N        2.0325585719   -0.2536051614   -0.4252582511
O       -0.2293871208   -0.5468498696   -0.4411900103
O       -2.1209598754    3.2625531132   -3.0616322326
O       -3.7666696909    1.8454458091   -1.7107412084
S       -2.3889569986    2.1396563389   -2.1372124043
H        0.2386353853    3.3451984479   -1.7593635604
H        0.7303904288    2.6815044920   -0.2015433183
H        0.2672227479   -0.0474088771   -3.5282707570
H       -0.0158160004    1.6688458673   -3.8134866598
H       -1.5342884545    1.5266954109   -0.0144218977
H       -1.7006755020    3.2957921150   -0.2135977834
H       -2.1752799427    0.4842917966   -3.7837183677
H       -1.8431187975   -0.1639011367   -2.1484322541
H        1.6864880770    1.4806101489   -2.1632852077
H        2.9998556176   -2.0488059281    0.1177969168
H        2.7475183274   -0.8972781660    1.4571578037
H        1.3674985135   -1.7963819748    0.7827348957
H        2.8079060874    0.2760626826   -0.7992475371
25   
torsion grid (-90,)
C        0.7826672693   -0.0306407219   -0.9648175179
C        0.1952558469    2.4121299540   -1.1304468011
C       -0.1946965432    0.8642772518   -3.1493947016
C       -1.2538945277    2.3062164875   -0.6468974229
C       -1.6925600425    0.6893060042   -2.8705846555
C        0.6789733173    1.1662659254   -1.9130812132
C        2.2712957901   -1.2111078219    0.6331767860
N        1.9985359432   -0.1793338766   -0.3594238327
O       -0.1737129713   -0.7721795075   -0.7238574541
O       -2.1171034201    3.3203997631   -2.9512649550
O       -3.7347756551    1.8810366713   -1.5893765818
S       -2.3716048215    2.1619811867   -2.0682582968
H        0.2851626469    3.2911728226   -1.7760221623
H        0.8424789018    2.5783685166   -0.2621000531
H        0.1659028382   -0.0503330414   -3.6317392720
H       -0.0661094454    1.6818336965   -3.8656326809
H       -1.4343814054    1.4328394078   -0.0165341273
H       -1.5758681159    3.2095247310   -0.1215413908
H       -2.2623325063    0.5859755745   -3.7983375909
H       -1.8963145586   -0.1527799991   -2.2096660946
H        1.6842892728    1.3972571155   -2.2854953915
H        3.1160570331   -1.8343635000    0.3223962727
H        2.4932079220   -0.7684175377    1.6105164642
H        1.3805365103   -1.8334535268    0.7190757189
H        2.7445672263    0.4527815530   -0.6162268240
25   
torsion grid (-75,)
C        0.8170496785   -0.0797429780   -1.0592013878
C        0.2372863030    2.3825398215   -1.1600102798
C       -0.2118107923    0.8739998773   -3.1926526983
C       -1.1949288037    2.2629081240   -0.6325834386
C       -1.7026149522    0.6986723377   -2.8777276470
C        0.6919258417    1.1459788719   -1.9736015095
C        2.2072171923   -1.1535109883    0.6902610549
N        1.9194261945   -0.0778971797   -0.2508817449
O       -0.0320654051   -0.9721226742   -1.0137915513
O       -2.1306441410    3.3322084026   -2.8817454510
O       -3.7043495878    1.8571269113   -1.5064601657
S       -2.3575175317    2.1511451568   -2.0221896950
H        0.3025260063    3.2707607929   -1.7957407172
H        0.9093187618    2.5403437660   -0.3098733449
H        0.1290570152   -0.0350458988   -3.6977246561
H       -0.0975796326    1.7038121347   -3.8969909316
H       -1.3553141462    1.3756052781   -0.0149119741
H       -1.5019969436    3.1514704485   -0.0743611356
H       -2.2981180809    0.6181336715   -3.7914219927
H       -1.8897544301   -0.1610706257   -2.2347135134
H        1.6924285565    1.3730625228   -2.3625824418
H        2.9302441915   -1.8678141805    0.2792180034
H        2.6030522877   -0.7386341488    1.6216240809
H        1.2762834172   -1.6818969351    0.8964034092
H        2.6264555062    0.6287246202   -0.4038740503
25   
torsion grid (-60,)
C        0.8636462036   -0.1031453313   -1.1467834173
C        0.2915546514    2.3865308666   -1.2078007772
C       -0.2101052370    0.8913993441   -3.2278403275
C       -1.1181783071    2.2540680023   -0.6268023704
C       -1.6854851334    0.6891771231   -2.8620230595
C        0.7220095272    1.1486114908   -2.0292145205
C        2.0863830683   -1.1387479678    0.7280328390
N        1.7829692476   -0.0056596474   -0.1402988073
O        0.1853394843   -1.1186404473   -1.3090055262
O       -2.1715598920    3.3118894229   -2.8283932627
O       -3.6502143255    1.7952012375   -1.3931576413
S       -2.3351050375    2.1215257612   -1.9681015103
H        0.3235155305    3.2706987201   -1.8516603825
H        0.9890032973    2.5658256525   -0.3831619985
H        0.1236304814   -0.0058478250   -3.7562397754
H       -0.1289264296    1.7353733670   -3.9196450429
H       -1.2427229114    1.3697765733    0.0041673993
H       -1.4157794774    3.1411334474   -0.0611581106
H       -2.3132390320    0.6067464347   -3.7536301613
H       -1.8355847253   -0.1835036030   -2.2259608665
H        1.7185687742    1.3639823372   -2.4360399150
H        2.7111092068   -1.8837701740    0.2218161412
H        2.6058159574   -0.7764004316    1.6179091332
H        1.1543246222   -1.6212288888    1.0261766782
H        2.4146069613    0.7837616642   -0.1367184960
25   
torsion grid (-45,)
C        0.9257645165   -0.1205558519   -1.2415113189
C        0.3549270185    2.3982255088   -1.2719245773
C       -0.2303427857    0.8958335332   -3.2536248646
C       -1.0222491374    2.2668280844   -0.6163849874
C       -1.6786088769    0.6672734888   -2.8078453471
C        0.7493253430    1.1511499440   -2.0934557683
C        1.9731190910   -1.1284146313    0.7467400332
N        1.6350567852    0.0245934816   -0.0823687102
O        0.4530977859   -1.2072491997   -1.5767485573
O       -2.2169723280    3.2799574444   -2.7651972644
O       -3.5803936342    1.7444511094   -1.2374737596
S       -2.3073850744    2.0942865221   -1.8883959204
H        0.3457707334    3.2694650900   -1.9340000926
H        1.0917086174    2.6139751930   -0.4909116151
H        0.0895217479    0.0082294769   -3.8042331670
H       -0.1971407235    1.7487042414   -3.9381683768
H       -1.1031981287    1.3966200713    0.0406164652
H       -1.3006995035    3.1635297482   -0.0561035102
H       -2.3542501125    0.5631951782   -3.6612753988
H       -1.7791699702   -0.2054967101   -2.1606437603
H        1.7319272277    1.3535009840   -2.5398228359
H        2.7777910176   -1.7266789754    0.3039348653
H        2.2836978633   -0.7777473345    1.7334044782
H        1.0930075818   -1.7647351990    0.8506431845
H        2.1312714510    0.8898159309    0.0792170276
25   
torsion grid (-30,)
C        1.0041080225   -0.1239872110   -1.3262834144
C        0.4111071643    2.4143237677   -1.3280527424
C       -0.2480595171    0.8943629158   -3.2672395693
C       -0.9352811986    2.2896293168   -0.6077593170
C       -1.6656728978    0.6421598980   -2.7450623065
C        0.7773186387    1.1604301155   -2.1489824285
C        1.8584258632   -1.1272815747    0.7523850910
N        1.4824961964    0.0294918484   -0.0552970269
O        0.7593953908   -1.2372130145   -1.7921253186
O       -2.2554815047    3.2422659185   -2.7118159211
O       -3.5081318032    1.7036544393   -1.0938652540
S       -2.2771072208    2.0703815969   -1.8130900703
H        0.3647131193    3.2724667912   -2.0056526132
H        1.1858560235    2.6593140133   -0.5924535808
H        0.0614895104    0.0120549769   -3.8308614041
H       -0.2629529136    1.7482532512   -3.9508248787
H       -0.9792978514    1.4363264873    0.0737380567
H       -1.1979477402    3.1986615994   -0.0597743753
H       -2.3833100241    0.5110819776   -3.5595554545
H       -1.7184679280   -0.2244565634   -2.0824410196
H        1.7395255945    1.3607184231   -2.6384630173
H        2.8029439642   -1.5696784178    0.4154645711
H        1.9555466424   -0.8154437721    1.7946057531
H        1.0792775420   -1.8868703054    0.6738799021
H        1.8150834323    0.9381106508    0.2339925602
25   
torsion grid (-15,)
C        1.1028829654   -0.1119984888   -1.3934633247
C        0.4526021018    2.4299155687   -1.3657673698
C       -0.2690714016    0.8758328729   -3.2597682396
C       -0.8765415757    2.3290330926   -0.6067499985
C       -1.6585357540    0.6163457850   -2.6719206100
C        0.7987626122    1.1729578862   -2.1884004931
C        1.7688527545   -1.1431670894    0.7381423513
N        1.3540125369    0.0101299870   -0.0557175536
O        1.1034804407   -1.2097857918   -1.9508937474
O       -2.2706191648    3.2119834759   -2.6951408078
O       -3.4567751519    1.7112258278   -0.9937421877
S       -2.2531979373    2.0673726304   -1.7628108917
H        0.3911037042    3.2819468612   -2.0499833630
H        1.2526534114    2.6787449957   -0.6579526393
H        0.0342836407   -0.0104690372   -3.8204878725
H       -0.3265040454    1.7177293508   -3.9557279289
H       -0.9096785554    1.4997313174    0.1036094192
H       -1.1237123811    3.2574921834   -0.0846850945
H       -2.4072819219    0.4449807351   -3.4501044075
H       -1.6735082764   -0.2267581458   -1.9763550028
H        1.7312155813    1.3859248327   -2.7264485251
H        2.8065101936   -1.4282701722    0.5304733954
H        1.6646437656   -0.8996678216    1.7977356929
H        1.1276759505   -1.9924191604    0.4975693282
H        1.5023230117    0.9299454329    0.3330560924
25   
torsion grid (0,)
C        0.1046732209   -0.8035118943    0.0813635149
C        1.5413404173   -2.0409288710    1.8718672742
C        0.6487254603   -3.2133058887   -0.2213804503
C        1.6831238412   -3.3416392385    2.6685845032
C        0.7287540467   -4.6156826693    0.3827088411
C        0.4094080078   -2.1093121978    0.8311752988
C        0.6511931730    1.5570495500   -0.3222029807
N        0.8472002615    0.2977861027    0.3893647321
O       -0.8059202769   -0.7641695996   -0.7467039678
O        1.9833427662   -5.9873514334    2.3272398617
O        3.3415821038   -4.3802452898    0.8671387512
S        2.0923007153   -4.7288822865    1.5720273054
H        1.3459904316   -1.2377334342    2.5918909997
H        2.5009819850   -1.8329324237    1.3847498627
H        1.5751810257   -3.0073177337   -0.7678201805
H       -0.1708230960   -3.1852656972   -0.9433877905
H        2.5045847019   -3.2982050407    3.3889510106
H        0.7647066290   -3.6165175332    3.1953767155
H       -0.1795655353   -4.9002760201    0.9220584133
H        0.9450755723   -5.3771684335   -0.3717858939
H       -0.5259271387   -2.3452780372    1.3561974837
H       -0.4126327473    1.8003715551   -0.3468137469
H        1.1916445319    2.3473207138    0.2030575350
H        1.0112518307    1.4955914130   -1.3551777591
H        1.6631197447    0.1994684443    0.9750811540
25   
torsion grid (15,)
C        0.0284800748   -0.7879217328    0.1775418364
C        1.4734169581   -2.0415487005    1.9439546428
C        0.6684764340   -3.1614662322   -0.2165274715
C        1.6351997875   -3.3643398001    2.6986699839
C        0.7821937246   -4.5826900912    0.3382246231
C        0.3684883594   -2.1105341436    0.8751116497
C        0.6997287950    1.5070725101   -0.3903426002
N        0.9075606867    0.2453617103    0.3129626982
O       -1.0062196205   -0.6848278867   -0.4821789656
O        2.0332979801   -5.9840205747    2.2641747403
O        3.3693651679   -4.2765534472    0.9006936350
S        2.1167000520   -4.6942346790    1.5608416686
H        1.2394169255   -1.2605476703    2.6758879200
H        2.4409952896   -1.7967080134    1.4902968148
H        1.5982470984   -2.9046702827   -0.7351420087
H       -0.1390201859   -3.1372750536   -0.9532096840
H        2.4377495406   -3.3232380140    3.4402492864
H        0.7135059707   -3.6869832501    3.1914026554
H       -0.1305226398   -4.9157001426    0.8409046910
H        1.0447713806   -5.3086213778   -0.4363907029
H       -0.5681660242   -2.4012029898    1.3667562877
H       -0.3264861706    1.8462343536   -0.2364659569
H        1.3910105239    2.2522090547    0.0088006673
H        0.8653244281    1.3986511592   -1.4679293184
H        1.7957971361    0.0854193509    0.7652733950
25   
torsion grid (30,)
C       -0.0291278185   -0.7641949196    0.2801629241
C        1.4013311552   -2.0482377610    2.0226981317
C        0.6829569329   -3.1037708955   -0.2033919268
C        1.5867412871   -3.3953735564    2.7272357857
C        0.8353874646   -4.5418008788    0.2977927400
C        0.3252155084   -2.1085937893    0.9233212912
C        0.7463206437    1.4471264546   -0.4688872688
N        0.9544749027    0.1786760294    0.2215687763
O       -1.1519272047   -0.5705880962   -0.1865061808
O        2.1040647847   -5.9771738243    2.1861785172
O        3.3949673192   -4.1550838200    0.9309946927
S        2.1477375567   -4.6535681765    1.5448601871
H        1.1256931352   -1.2995972536    2.7730691086
H        2.3736306243   -1.7575391981    1.6092198664
H        1.6128040614   -2.7971505336   -0.6936304796
H       -0.1102375041   -3.0818339572   -0.9566241763
H        2.3656810755   -3.3592624015    3.4938015459
H        0.6634445036   -3.7714559447    3.1772327258
H       -0.0752764638   -4.9261398433    0.7662765038
H        1.1402236367   -5.2266890229   -0.4983889390
H       -0.6145039419   -2.4422374673    1.3779383565
H       -0.2051898448    1.8814933438   -0.1561806295
H        1.5585402212    2.1290745026   -0.2087662261
H        0.7197264317    1.3135372347   -1.5561041221
H        1.8866332056   -0.0577521690    0.5296892838
25   
torsion grid (45,)
C       -0.0623229113   -0.7367302710    0.3728996166
C        1.3280530522   -2.0570310028    2.0922109972
C        0.7074738048   -3.0544580798   -0.1935225941
C        1.5398521662   -3.4233967531    2.7500300830
C        0.8878194473   -4.5038396839    0.2649921938
C        0.2896012698   -2.1089275836    0.9547641724
C        0.7803970568    1.3928307205   -0.5337314289
N        0.9829204459    0.1022000647    0.1155870028
O       -1.2284891850   -0.4264870138    0.1297788568
O        2.1704446989   -5.9617391338    2.1271790212
O        3.4154323329   -4.0473244396    0.9679554503
S        2.1760243064   -4.6140852006    1.5371783354
H        0.9983199556   -1.3484606213    2.8592727003
H        2.2999406001   -1.7090046075    1.7273996530
H        1.6417182475   -2.7103508488   -0.6487122412
H       -0.0626011028   -3.0321440622   -0.9713259055
H        2.2942171584   -3.3912287430    3.5410210964
H        0.6177146310   -3.8484038143    3.1569009082
H       -0.0214854426   -4.9278636875    0.7006296282
H        1.2295417484   -5.1544710781   -0.5447955260
H       -0.6567375428   -2.4745717858    1.3671081958
H       -0.0456110343    1.9187703260   -0.0510481383
H        1.6925584851    1.9851722609   -0.4359959180
H        0.5369171509    1.2759679877   -1.5957101703
H        1.9276123331   -0.2325588926    0.2434944985
25   
torsion grid (60,)
C       -0.0667521741   -0.7085635726    0.4498467865
C        1.2649425716   -2.0681309185    2.1412634918
C        0.7471045922   -3.0209858746   -0.1919408000
C        1.4945678862   -3.4452484623    2.7695536876
C        0.9381361703   -4.4767968582    0.2417751591
C        0.2712466546   -2.1121096395    0.9616982833
C        0.7930307859    1.3596832895   -0.5798172583
N        0.9849321722    0.0307926495   -0.0097509553
O       -1.2191077339   -0.2762666016    0.4591145403
O        2.2057010123   -5.9512315419    2.1002481892
O        3.4324716590   -3.9771873877    1.0233988396
S        2.1935671931   -4.5882751300    1.5464916152
H        0.8796432579   -1.3945531325    2.9139604655
H        2.2331318914   -1.6703553044    1.8221351694
H        1.6924839953   -2.6589124146   -0.6082231604
H        0.0076511598   -2.9953377994   -0.9993490394
H        2.2252254135   -3.4142115405    3.5825897733
H        0.5729920073   -3.9043185722    3.1389432802
H        0.0247404238   -4.9252110059    0.6430325163
H        1.3141058726   -5.1050733433   -0.5704883250
H       -0.6840432726   -2.4996161894    1.3302560181
H        0.1349944993    1.9432334618    0.0670611969
H        1.7623843037    1.8571883941   -0.6526641397
H        0.3370834995    1.3093547541   -1.5749789808
H        1.8990778315   -0.3960032033   -0.0705958659
25   
torsion grid (75,)
C        0.8961878128   -0.7808425435   -0.1316340100
C        2.0233451326   -2.1721779934    1.6409248549
C        0.6770338906   -3.3333014071   -0.2163124256
C        1.9171936765   -3.3535817287    2.6088018897
C        0.4435809398   -4.6063986963    0.6015294700
C        0.8233523041   -2.0821880847    0.6729144388
C        2.0693404594    0.4579028120   -1.9197985555
N        1.8259090002   -0.7448673613   -1.1318737784
O        0.1609392574    0.1726247115    0.1229707354
O        1.5239426666   -6.0143550810    2.6217001142
O        3.0655654946   -4.9902935141    0.8505695863
S        1.8564168451   -4.9202234025    1.6959995149
H        2.0812001578   -1.2494486330    2.2276422145
H        2.9612171835   -2.2616415057    1.0834013503
H        1.5683040477   -3.4862506080   -0.8329407757
H       -0.1677044132   -3.1991625852   -0.9000852424
H        2.7927200861   -3.4357555118    3.2588576938
H        1.0173295668   -3.3154211551    3.2294165574
H       -0.4425250938   -4.5464447148    1.2400482008
H        0.3666786449   -5.4968982564   -0.0284476361
H       -0.0876682274   -1.9755345615    1.2708104213
H        2.7506902990    1.1484879052   -1.4088283333
H        2.4997951760    0.1760935612   -2.8836597555
H        1.1204969212    0.9706351820   -2.0827278292
H        2.4672546431   -1.5201533744   -1.2296462198
25   
torsion grid (90,)
C        0.9747812306   -0.7574744938   -0.0882068474
C        2.0087717080   -2.1734248697    1.6910399579
C        0.7665581460   -3.3332982561   -0.2337618110
C        1.8636040191   -3.3586218451    2.6485847605
C        0.4878608354   -4.6073944704    0.5690470925
C        0.8566147631   -2.0858369069    0.6651694206
C        2.0082054615    0.4647180255   -1.9648944141
N        1.7266618022   -0.7618711979   -1.2275727052
O        0.4353210576    0.2609838051    0.3441476603
O        1.4608498982   -6.0176163238    2.6420878150
O        3.0905427839   -5.0023808623    0.9471885816
S        1.8431980454   -4.9249940164    1.7339883114
H        2.0272169841   -1.2523124291    2.2817919593
H        2.9703507323   -2.2515618682    1.1733014119
H        1.6973135978   -3.4912919919   -0.7893118965
H       -0.0339693633   -3.2029757485   -0.9695033541
H        2.7100239313   -3.4409499571    3.3361120010
H        0.9375105777   -3.3231146720    3.2296343531
H       -0.4308172399   -4.5468891819    1.1595985884
H        0.4437887226   -5.4969470459   -0.0653289251
H       -0.0823635482   -1.9931197045    1.2218221184
H        2.8413368968    1.0229764672   -1.5217952520
H        2.2531642896    0.2140448591   -2.9996558324
H        1.1218524586    1.1001601165   -1.9456959418
H        2.2322186807   -1.6000039785   -1.4781545717
25   
torsion grid (105,)
C        1.0818298458   -0.7394615978   -0.0527865356
C        2.0097567588   -2.1869635561    1.7501177909
C        0.8715962742   -3.3253654655   -0.2465655971
C        1.8026227373   -3.3734453659    2.6941246216
C        0.5382090611   -4.6020062182    0.5308785047
C        0.9165543026   -2.0846595842    0.6630758405
C        1.9203256064    0.4782002516   -2.0219746768
N        1.6271015198   -0.7569100860   -1.3032995153
O        0.7422196504    0.3043732836    0.5048473799
O        1.3565077356   -6.0259591888    2.6564611204
O        3.1068978539   -5.0360967200    1.0694783169
S        1.8146753602   -4.9385154121    1.7773155704
H        2.0029069236   -1.2667256714    2.3411213216
H        2.9958323790   -2.2723346106    1.2813993415
H        1.8358259198   -3.4847269055   -0.7430105792
H        0.1147423104   -3.1904491902   -1.0268111735
H        2.6109701749   -3.4655784577    3.4248881504
H        0.8476571241   -3.3303100989    3.2258389330
H       -0.4155311844   -4.5392745147    1.0627063064
H        0.5288022026   -5.4877330124   -0.1102665720
H       -0.0498852949   -1.9962581164    1.1732892515
H        2.8657003054    0.9247475650   -1.6922065947
H        1.9763287760    0.2657980730   -3.0921129677
H        1.1198568777    1.1953552266   -1.8355082363
H        1.9890932510   -1.6248971738   -1.6713675211
25   
torsion grid (120,)
C        1.2048015757   -0.7301242886   -0.0308438314
C        2.0069971611   -2.2017022867    1.8108803460
C        0.9748103218   -3.3184645088   -0.2541916321
C        1.7354463681   -3.3897986390    2.7348811911
C        0.5903709110   -4.5965335934    0.4972590281
C        0.9827109604   -2.0819483577    0.6615241993
C        1.8291666092    0.4908833837   -2.0757425113
N        1.5294430964   -0.7421664563   -1.3557775619
O        1.0736928276    0.3157504277    0.6055949833
O        1.2694333063   -6.0378389387    2.6584170851
O        3.1175709029   -5.0591266868    1.1799681422
S        1.7886972828   -4.9506407196    1.8135956798
H        1.9732617795   -1.2821743942    2.4005920413
H        3.0177043756   -2.2936012732    1.3991943930
H        1.9628925020   -3.4762317855   -0.7023124451
H        0.2535209982   -3.1805224233   -1.0676064701
H        2.4988471524   -3.4912300178    3.5113221831
H        0.7513647268   -3.3422241501    3.2104247166
H       -0.3920258340   -4.5284939577    0.9734146038
H        0.6108146771   -5.4789222127   -0.1482221178
H       -0.0124383737   -1.9874828489    1.1153536661
H        2.8586324184    0.8238758327   -1.8991947498
H        1.6819820876    0.3262562555   -3.1457162619
H        1.1525092813    1.2742929514   -1.7322792207
H        1.7503893569   -1.6210278581   -1.8009029762
25   
torsion grid (135,)
C        1.1935608622    0.7581615211   -0.3928728149
C       -0.2058878163    2.7704098565   -0.9473873053
C        0.4239073452    1.2087769168   -2.8662114829
C       -1.5919201195    2.1523087731   -0.7522760189
C       -0.9243679544    0.4749165742   -2.8735115602
C        0.8411576173    1.7765489931   -1.4938425501
C        1.7041923402   -1.5648369557    0.2346878367
N        1.2596009789   -0.5646034663   -0.7326833684
O        1.3797788797    1.1342229150    0.7645956209
O       -2.2856146309    2.7316851058   -3.2612135373
O       -3.4740607757    0.7818283831   -2.1041037273
S       -2.2603717403    1.5813180384   -2.3365857009
H       -0.2893696727    3.6194404299   -1.6319895689
H        0.1422025782    3.1453681324    0.0174214659
H        1.1959813431    0.5420817232   -3.2701609879
H        0.3562004941    2.0416706633   -3.5729979448
H       -1.5858416321    1.2908940614   -0.0789156536
H       -2.3176705793    2.8824038063   -0.3837520926
H       -1.2105238496    0.1566249774   -3.8797759165
H       -0.9612466703   -0.3869217709   -2.2036477988
H        1.7662550442    2.3457948760   -1.6435055040
H        1.1610886548   -1.4262912041    1.1707762745
H        1.4916339497   -2.5594826514   -0.1629927654
H        2.7759962379   -1.4775543357    0.4456082164
H        1.2808956208   -0.8160082342   -1.7101968942
25   
torsion grid (150,)
C        1.0846465771    0.7008656150   -0.3820126784
C       -0.1801630130    2.7974721737   -0.9735165447
C        0.3900497689    1.1810010836   -2.8558845704
C       -1.5899628117    2.2398626667   -0.7599790447
C       -0.9645532037    0.4642140562   -2.8258131978
C        0.8225338123    1.7447141887   -1.4861992424
C        1.7716681890   -1.5870556807    0.2001470116
N        1.3935977241   -0.5698688164   -0.7767466333
O        1.0090828668    1.0025560503    0.8094956410
O       -2.3006486029    2.7186067116   -3.2844623139
O       -3.4998445780    0.8347381241   -2.0327790306
S       -2.2787260458    1.6080668183   -2.3116996962
H       -0.2256341483    3.6274351630   -1.6846643321
H        0.1740426481    3.1876513669   -0.0173443985
H        1.1443361775    0.5003887327   -3.2688657022
H        0.3252950033    2.0114446498   -3.5658817564
H       -1.6125502886    1.4196101586   -0.0385973726
H       -2.2906729877    3.0145368938   -0.4368094831
H       -1.2688574868    0.1179001375   -3.8173519608
H       -0.9920691680   -0.3770634477   -2.1292552249
H        1.7823896732    2.2569563558   -1.6293086029
H        1.0551964991   -1.5803358303    1.0232141633
H        1.7560260264   -2.5654721726   -0.2846883821
H        2.7691983743   -1.4017136028    0.6141682167
H        1.5911954997   -0.7477542672   -1.7506986428
25   
torsion grid (165,)
C        0.9893612386    0.6239372298   -0.3873543747
C       -0.1628006102    2.7934715234   -0.9828782120
C        0.3364951962    1.1274362998   -2.8451107186
C       -1.6032192821    2.3156337355   -0.7742791926
C       -1.0436223956    0.4660021541   -2.7907600055
C        0.7913429730    1.6919053812   -1.4813338900
C        1.8865160250   -1.5937020091    0.1897653211
N        1.5445327903   -0.5599393925   -0.7827451896
O        0.6629959810    0.8220585199    0.7835422686
O       -2.2621582836    2.7690062900   -3.3188543563
O       -3.5685556566    0.9800402978   -2.0359892338
S       -2.3065530144    1.6834786141   -2.3179787146
H       -0.1594159424    3.6182968372   -1.7016518425
H        0.2004626851    3.1766237113   -0.0268714896
H        1.0557107621    0.4030333234   -3.2432173896
H        0.3028897034    1.9463571180   -3.5702323889
H       -1.6731854384    1.5162791168   -0.0343228588
H       -2.2645121184    3.1351421394   -0.4798551031
H       -1.3631901331    0.0981276015   -3.7696349945
H       -1.0995903792   -0.3511766357   -2.0668037770
H        1.7754802229    2.1553992554   -1.6285846960
H        1.0448112198   -1.7438013382    0.8679292810
H        2.0923706781   -2.5252310540   -0.3417760164
H        2.7616884200   -1.3152741147    0.7877076143
H        1.9277218636   -0.6343474757   -1.7142438189
25   
torsion grid (180,)
C        0.9498378639    0.5301280727   -0.4524099601
C       -0.0426541739    2.7899528161   -1.0518960238
C        0.1891368393    0.9952319509   -2.8567578236
C       -1.5143804716    2.4765610394   -0.7586613959
C       -1.2378884902    0.4716068754   -2.6763107589
C        0.7793121012    1.5892050715   -1.5567613934
C        1.9895057328   -1.6178360439    0.1679277173
N        1.6678396707   -0.5782250283   -0.8046304472
O        0.4604693152    0.6542022021    0.6710213892
O       -2.2482987982    2.8501159662   -3.2965189635
O       -3.6624835200    1.2821254873   -1.8511630366
S       -2.3512028379    1.8345019893   -2.2284476268
H        0.0098610275    3.5886957241   -1.7980104532
H        0.4024679406    3.1664563937   -0.1272465559
H        0.8111456089    0.1768101470   -3.2336993079
H        0.1841763537    1.7685027626   -3.6310010301
H       -1.6271871115    1.7308760377    0.0290295194
H       -2.0722206210    3.3779446615   -0.4900647653
H       -1.6482843420    0.0651223029   -3.6046145325
H       -1.3222396255   -0.2822288372   -1.8888116729
H        1.7845565013    1.9601482315   -1.7951469477
H        2.2765137658   -2.5275010592   -0.3642899958
H        2.8053804757   -1.3147476666    0.8344355064
H        1.1079087812   -1.8197426807    0.7779137996
H        2.1743045191   -0.5691492874   -1.6794190191
