14   
torsion grid (-165,)
C        0.2341019972   -0.3997973252    1.0083044602
C        1.6595346644   -0.6968992611    2.9349456187
C       -0.6845941182   -1.2615053202    1.6144672078
C        1.4214192284   -0.1179522086    1.6888606176
C        0.6682645297   -1.5507275270    3.4107795283
N       -0.4807863680   -1.8353252171    2.8088424406
O        2.0440559665   -1.5918360871    5.6832245425
O        1.4975208752   -3.7564666581    4.3432617791
S        0.9062363417   -2.3255161913    5.0568352236
Cl       2.5990391179    0.9595487549    0.9829080605
H        0.0240898982    0.0429376294    0.0404352033
H        2.5525323152   -0.5051982917    3.5214343355
H       -1.6243577733   -1.4942508352    1.1182322361
H        1.4014893775   -4.4715144168    5.0005917984
14   
torsion grid (-150,)
C        0.2231483624   -0.3792365786    1.0033577434
C        1.6563791701   -0.7972085851    2.9021259793
C       -0.7401567623   -1.1864614352    1.6122419330
C        1.4377542569   -0.1867986506    1.6688974179
C        0.6189797742   -1.5943441172    3.3824282189
N       -0.5555972669   -1.7911488633    2.7961660693
O        1.7523137067   -1.5192223321    5.7885776820
O        1.6979934120   -3.6772255881    4.3310501735
S        0.8133484530   -2.3894266747    5.0234700978
Cl       2.6716645360    0.8220442739    0.9577895211
H        0.0284837942    0.0912899694    0.0454271806
H        2.5669730110   -0.6623767348    3.4767380016
H       -1.7019288817   -1.3480792570    1.1303159342
H        1.7283398993   -4.3983077080    4.9886009444
14   
torsion grid (-135,)
C        0.2003500005   -0.3562081622    1.0095065868
C        1.6512245078   -0.9067985872    2.8605187173
C       -0.7946097270   -1.1184427746    1.6232822894
C        1.4409436767   -0.2551250225    1.6481010499
C        0.5776083453   -1.6496259005    3.3523248673
N       -0.6188963600   -1.7618879935    2.7890866731
O        1.4427623688   -1.5028978872    5.8694418231
O        1.8951960622   -3.5633771594    4.3485048775
S        0.7383888765   -2.4729981446    4.9827479323
Cl       2.7175658753    0.6913755877    0.9264468524
H        0.0127318979    0.1478311150    0.0673437110
H        2.5867452306   -0.8443439180    3.4059997193
H       -1.7752542796   -1.2121447972    1.1619955566
H        2.0520641692   -4.2490470314    5.0258076958
14   
torsion grid (-120,)
C        0.1731773699   -0.3153686252    1.0262975755
C        1.6551315978   -0.9991671202    2.8071289225
C       -0.8376493447   -1.0484931674    1.6491176099
C        1.4377282319   -0.2976937307    1.6242120062
C        0.5613310872   -1.7003210879    3.3165688712
N       -0.6561343963   -1.7367823873    2.7880514173
O        1.1348504114   -1.5333277252    5.9198483602
O        2.0811578137   -3.4125980987    4.3951656231
S        0.6954776319   -2.5596289415    4.9318551342
Cl       2.7370887361    0.6060486412    0.8880920670
H       -0.0192174832    0.2271769779    0.1067630740
H        2.6152160123   -1.0111264141    3.3108622453
H       -1.8354591995   -1.0822123869    1.2173138795
H        2.3305973403   -4.0348910938    5.1049295579
14   
torsion grid (-105,)
C        0.1561374297   -0.2743419606    1.0543255682
C        1.6687163282   -1.0904321918    2.7530551079
C       -0.8635465789   -0.9870385056    1.6872850507
C        1.4399819448   -0.3357464935    1.6046969667
C        0.5634071975   -1.7588031761    3.2805019147
N       -0.6717579354   -1.7246320181    2.7920041964
O        0.8129856226   -1.6542940902    5.9416064760
O        2.2267330198   -3.2655769794    4.4686504780
S        0.6670168833   -2.6773302724    4.8681610473
Cl       2.7535120948    0.5342207354    0.8526001038
H       -0.0440834304    0.3094761312    0.1621580270
H        2.6468834319   -1.1703104493    3.2127914098
H       -1.8760949927   -0.9638255757    1.2904503294
H        2.5092032534   -3.8481570346    5.1989414614
14   
torsion grid (-90,)
C        0.1507398804   -0.2403212582    1.0794223001
C        1.6907844467   -1.1758170621    2.6915731458
C       -0.8735147165   -0.9313054506    1.7305493677
C        1.4495686091   -0.3745536513    1.5764332784
C        0.5791810441   -1.8110359514    3.2445505569
N       -0.6705906763   -1.7104782264    2.8024497153
O        0.5017471726   -1.8307744836    5.9190283948
O        2.3279859460   -3.1117027189    4.5692728578
S        0.6585977533   -2.7969334080    4.7970560082
Cl       2.7713252634    0.4625010940    0.8009740196
H       -0.0582086941    0.3796834211    0.2141024642
H        2.6814417994   -1.3097743148    3.1087986685
H       -1.8985067377   -0.8547050490    1.3743520165
H        2.6162438279   -3.6727277565    5.3136156870
14   
torsion grid (-75,)
C        0.1559812113   -0.2164456027    1.0952205947
C        1.7170087812   -1.2462609049    2.6287137725
C       -0.8697096572   -0.8763621397    1.7773903563
C        1.4654026390   -0.4148509881    1.5367076489
C        0.6030240653   -1.8396234855    3.2214161357
N       -0.6570650074   -1.6798223291    2.8274575667
O        0.2218727278   -2.0543354454    5.8645923161
O        2.3915455690   -2.9223944560    4.6923363203
S        0.6782465741   -2.9002148135    4.7295083788
Cl       2.7914792897    0.3790739572    0.7234010538
H       -0.0609921980    0.4264383868    0.2488010743
H        2.7172223441   -1.4218581068    3.0043857393
H       -1.9039415834   -0.7522273897    1.4635918422
H        2.6837814400   -3.5004493793    5.4217031169
14   
torsion grid (-60,)
C        0.2916686354   -0.4683016541    0.9112651022
C        1.3386686764   -0.4756854066    3.0930663835
C       -0.4971668210   -1.5377309189    1.3446864796
C        1.2212146882    0.0585181570    1.8088545401
C        0.4819790382   -1.5329459980    3.4003480643
N       -0.4066179485   -2.0695125019    2.5696995066
O       -0.9251594542   -2.2204001603    5.5786908815
O        1.4900916293   -1.2117282712    5.7254787554
S        0.4485164432   -2.3873437115    5.0390935628
Cl       2.2407930307    1.3923201546    1.3273540051
H        0.1856398160   -0.0666567808   -0.0908570230
H        2.0394268565   -0.0837769494    3.8192236780
H       -1.2298168342   -1.9837836823    0.6753942084
H        1.7467681994   -1.5404285161    6.6071201574
14   
torsion grid (-45,)
C        0.2675830605   -0.4454016691    0.9347663807
C        1.4006906956   -0.5134540330    3.0694946873
C       -0.5496511037   -1.4808308323    1.3963416950
C        1.2568659125    0.0345873982    1.7944204061
C        0.5099530072   -1.5337661327    3.4092012626
N       -0.4320276253   -2.0257364547    2.6138344365
O       -0.8204820740   -2.5633477078    5.5037448467
O        1.3154366697   -1.0535913295    5.7765949032
S        0.5795891985   -2.4145177285    5.0358911887
Cl       2.3128858373    1.3266157341    1.2784451030
H        0.1376163755   -0.0330490854   -0.0601666445
H        2.1413216430   -0.1493313853    3.7703550198
H       -1.3293412190   -1.8889531999    0.7565548157
H        1.6206277513   -1.3417106198    6.6572068334
14   
torsion grid (-30,)
C        0.2574910796   -0.4255405847    0.9484947139
C        1.4713839661   -0.5581227863    3.0318175927
C       -0.5871885907   -1.4243775672    1.4391144910
C        1.3033253750    0.0053103833    1.7673703700
C        0.5504558552   -1.5404596529    3.4039491311
N       -0.4439038171   -1.9830389924    2.6487620162
O       -0.6623034331   -2.8538603450    5.4123628005
O        1.1130829820   -0.9442151573    5.8049207433
S        0.7021180597   -2.4190055641    5.0292007906
Cl       2.3930986089    1.2534792736    1.2149937867
H        0.1048669738   -0.0015068109   -0.0382862199
H        2.2540808610   -0.2276881789    3.7041481243
H       -1.4116071770   -1.7910039216    0.8309569675
H        1.4284172372   -1.1733952032    6.6995614735
14   
torsion grid (-15,)
C        0.2303644503   -0.4103189874    0.9701433907
C        1.5330563738   -0.6007949804    2.9940217454
C       -0.6334063145   -1.3713658483    1.5003703939
C        1.3315441731   -0.0270575187    1.7399392468
C        0.5875250787   -1.5425844264    3.4068644636
N       -0.4590710784   -1.9393318335    2.7025611508
O       -0.4568320450   -3.0991899745    5.3404949577
O        0.8801478735   -0.8817472798    5.8303949215
S        0.8141223852   -2.4012205848    5.0350276191
Cl       2.4479909283    1.1726409881    1.1367961960
H        0.0513618872    0.0211488953   -0.0090139305
H        2.3633539759   -0.3091558943    3.6278226197
H       -1.5010254624   -1.6995379268    0.9316219885
H        1.1649459577   -1.0539770520    6.7481841225
14   
torsion grid (0,)
C        0.2101183049   -0.3835980148    0.9952596122
C        1.5951195259   -0.6179249336    2.9573949723
C       -0.6679973535   -1.3044144270    1.5724177759
C        1.3610551320   -0.0421354814    1.7097432257
C        0.6304598399   -1.5148189744    3.4203086975
N       -0.4633143124   -1.8718866898    2.7699147468
O       -0.2055856798   -3.2778535044    5.2844336700
O        0.6323676931   -0.8551356670    5.8577163250
S        0.9202070434   -2.3424244351    5.0539408254
Cl       2.5002459237    1.1018469253    1.0447654050
H        0.0047374114    0.0476295474    0.0211769364
H        2.4717229334   -0.3664253465    3.5458592506
H       -1.5735802036   -1.5989123612    1.0459182864
H        0.8755888477   -0.9850309131    6.7945013263
14   
torsion grid (15,)
C        0.1910273480   -0.3711479038    1.0094805354
C        1.6522120213   -0.6349929624    2.9107396508
C       -0.6982104988   -1.2450459775    1.6424364036
C        1.3863447173   -0.0681236335    1.6642592538
C        0.6735912752   -1.4817233373    3.4321548480
N       -0.4645676474   -1.8009462407    2.8389430035
O        0.0746916223   -3.4120297254    5.2273339990
O        0.3924696919   -0.8938089112    5.8695234487
S        1.0135537182   -2.2753690728    5.0704384594
Cl       2.5438045478    1.0113317560    0.9274512096
H       -0.0402988449    0.0517932724    0.0375825783
H        2.5700529758   -0.4206657354    3.4497253676
H       -1.6379437844   -1.5088856437    1.1613909663
H        0.5588700956   -1.0155935535    6.8241737107
14   
torsion grid (30,)
C        0.1896686908   -0.3687138580    1.0150263443
C        1.7057884939   -0.6479704197    2.8704447853
C       -0.7162664327   -1.1802017398    1.7077957371
C        1.4206160909   -0.1052740698    1.6159551430
C        0.7103563646   -1.4322052993    3.4516179382
N       -0.4657273446   -1.7115157206    2.9102936337
O        0.3583953152   -3.4808993241    5.1795440527
O        0.1669112661   -0.9689232297    5.8735972453
S        1.0802527644   -2.1865736766    5.0974733611
Cl       2.6006640518    0.8940016588    0.8060857021
H       -0.0584395583    0.0361739826    0.0395777034
H        2.6539293735   -0.4653229685    3.3672409177
H       -1.6854591565   -1.4099106507    1.2694420682
H        0.2561712376   -1.1109549170    6.8358320932
14   
torsion grid (45,)
C        0.1922485091   -0.3850761391    1.0129392905
C        1.7456087033   -0.6616357173    2.8368149226
C       -0.7327769310   -1.1196346510    1.7655858627
C        1.4513677428   -0.1590334155    1.5669353730
C        0.7330223369   -1.3735222825    3.4771621053
N       -0.4736286853   -1.6123139011    2.9815823185
O        0.6549076789   -3.4950356901    5.1407982794
O       -0.0336740860   -1.0843661647    5.8721054313
S        1.1284084938   -2.0861408056    5.1319505529
Cl       2.6553571359    0.7445879811    0.6835485646
H       -0.0649697532   -0.0088203893    0.0284538110
H        2.7155432172   -0.5051005157    3.2992769739
H       -1.7253027820   -1.3161285689    1.3647830161
H        0.0147788611   -1.2502111122    6.8333001337
14   
torsion grid (60,)
C        0.1925786151   -0.3885333596    1.0079039577
C        1.7642299255   -0.6549445149    2.8177264793
C       -0.7517366202   -1.0418010231    1.8099721835
C        1.4706928977   -0.1982213217    1.5304744864
C        0.7328752733   -1.2914836114    3.5063631410
N       -0.4943410041   -1.4902207803    3.0432417772
O        0.9592579562   -3.4330083050    5.1197888593
O       -0.2105562414   -1.2202911998    5.8664156650
S        1.1528353244   -1.9582114581    5.1737913672
Cl       2.6986363492    0.6077578571    0.5877843490
H       -0.0654081660   -0.0441955048    0.0119990086
H        2.7486582010   -0.5218132338    3.2564371947
H       -1.7602729182   -1.2070088201    1.4359044703
H       -0.1696064926   -1.3932773092    6.8264886652
14   
torsion grid (75,)
C        0.1903715916   -0.4066934250    0.9988363475
C        1.7677490492   -0.6651628104    2.8045488132
C       -0.7755682852   -0.9694284035    1.8413414858
C        1.4828501144   -0.2569615902    1.5000587615
C        0.7143558013   -1.2165114299    3.5340553390
N       -0.5269095437   -1.3699929351    3.0935292865
O        1.2523392407   -3.3158328862    5.1203225875
O       -0.3493129938   -1.3872349362    5.8534687095
S        1.1554902753   -1.8319476695    5.2189087252
Cl       2.7378410620    0.4410383437    0.5082631274
H       -0.0617988863   -0.0972566488   -0.0099222844
H        2.7633438899   -0.5612222619    3.2258787930
H       -1.7960954425   -1.0996634131    1.4864720466
H       -0.3118110039   -1.5657690982    6.8125753951
14   
torsion grid (90,)
C        0.2572295867   -0.3661034533    0.9893897669
C        1.6028369934   -0.3574659636    2.9900864820
C       -0.2558537471   -1.5969505320    1.4108012506
C        1.2038194638    0.2571459449    1.8030532285
C        1.0173642333   -1.5890166416    3.2899683817
N        0.1113860931   -2.2059458700    2.5457323034
O        2.8498425512   -3.1903642340    4.4073509391
O        0.3092009537   -3.3958872539    4.9717833646
S        1.6609513141   -2.3939564263    4.8275741554
Cl       1.8828737740    1.7977651342    1.3433421049
H       -0.0735081440    0.0878013686    0.0612370166
H        2.3413580266    0.0994034308    3.6422669615
H       -0.9981900739   -2.1129582948    0.8049532259
H        0.3899764100   -3.8451714221    5.8347058795
14   
torsion grid (105,)
C        0.2611024548   -0.3758933269    0.9785910698
C        1.6118630104   -0.3799284619    2.9769845200
C       -0.3200188599   -1.5601535279    1.4393174040
C        1.2440714765    0.2176644301    1.7725376425
C        0.9531192412   -1.5638548367    3.3193399129
N        0.0136345789   -2.1514723626    2.5950838781
O        2.8960830084   -2.9064933106    4.5673191250
O        0.3862980251   -3.5553516261    4.8481724048
S        1.5546672619   -2.3393143442    4.8929759977
Cl       2.0111920878    1.6992402434    1.2603077181
H       -0.0442145922    0.0660568367    0.0360610350
H        2.3865711286    0.0473633236    3.6064237305
H       -1.0900889304   -2.0542345155    0.8501063139
H        0.4424189458   -4.0214625447    5.7041243065
14   
torsion grid (120,)
C        0.2497373634   -0.3667168173    0.9961037081
C        1.6145371862   -0.3907152208    2.9854138684
C       -0.3825308708   -1.5119913530    1.4855995128
C        1.2649915238    0.1974779917    1.7713444538
C        0.8982268477   -1.5309173601    3.3609461484
N       -0.0698341936   -2.0920491274    2.6535326970
O        2.8987486804   -2.5980645693    4.7524714418
O        0.5286858857   -3.6792135429    4.7243663109
S        1.4533361021   -2.2885603917    4.9603426803
Cl       2.0998157184    1.6271418593    1.2187186968
H       -0.0396070992    0.0675210436    0.0449983301
H        2.4230492347    0.0018012504    3.5936899647
H       -1.1756849795   -1.9851142772    0.9100459149
H        0.5163772661   -4.1508064623    5.5787128847
14   
torsion grid (135,)
C        0.2492741641   -0.3638047869    1.0046224028
C        1.6274795696   -0.4119972836    2.9855111048
C       -0.4364158696   -1.4652908450    1.5229674409
C        1.2970234036    0.1657482087    1.7605277382
C        0.8534613291   -1.5022598952    3.3908784223
N       -0.1448892971   -2.0341843984    2.7013613632
O        2.8418436884   -2.3061670753    4.9503652556
O        0.7171893018   -3.7634170726    4.5973030096
S        1.3510839622   -2.2542317506    5.0091536899
Cl       2.2002273641    1.5367181901    1.1677825910
H       -0.0238424020    0.0622149361    0.0450406378
H        2.4640990720   -0.0582732220    3.5785503105
H       -1.2543524583   -1.9120819112    0.9613318493
H        0.6060420000   -4.2583420132    5.4305632791
14   
torsion grid (150,)
C        0.2364968787   -0.3508974509    1.0146129722
C        1.6205704044   -0.4294539666    2.9910238930
C       -0.5047934235   -1.4047918296    1.5574129244
C        1.3139992762    0.1389620626    1.7545108610
C        0.7938836430   -1.4693533385    3.4170705140
N       -0.2363633461   -1.9651129291    2.7443830576
O        2.6955025300   -2.0369519000    5.1702022122
O        0.9096386972   -3.7924135072    4.4932644257
S        1.2198827650   -2.2254065577    5.0482097145
Cl       2.2839624768    1.4483758225    1.1288475416
H       -0.0190816698    0.0692075419    0.0476372469
H        2.4730697529   -0.1122318400    3.5820534319
H       -1.3481565433   -1.8177746581    1.0077244343
H        0.6836137222   -4.3323211778    5.2732480703
14   
torsion grid (165,)
C        0.2376803200   -0.4102549517    0.9939795590
C        1.6482420227   -0.5396946609    2.9496716733
C       -0.5702389177   -1.3935321556    1.5747719954
C        1.3612462444    0.0179692653    1.7029470187
C        0.7597925442   -1.5097151343    3.4076321040
N       -0.3205068513   -1.9443570273    2.7697164853
O        2.5300035744   -1.8826557212    5.3432421971
O        1.0963107421   -3.8328117157    4.4078140274
S        1.1170557006   -2.2632883222    5.0497409364
Cl       2.4086905667    1.2407621715    1.0289587389
H       -0.0054945634    0.0056349594    0.0219906152
H        2.5210349732   -0.2663324137    3.5335799315
H       -1.4538670362   -1.7521941391    1.0509209161
H        0.8582071438   -4.4379182204    5.1347153292
14   
torsion grid (180,)
C        0.2312112556   -0.4196984048    0.9883888124
C        1.6527031877   -0.6141109788    2.9312230422
C       -0.6323138070   -1.3417670566    1.5890465718
C        1.3881175245   -0.0555167803    1.6801661408
C        0.7140698604   -1.5263892172    3.4038145720
N       -0.4034506112   -1.8948393650    2.7873954174
O        2.3055661999   -1.7132110510    5.5176316844
O        1.2991079173   -3.8094705186    4.3568433292
S        1.0083847999   -2.2843485539    5.0512903249
Cl       2.4998496282    1.0944872133    0.9817248573
H        0.0027198756    0.0022187448    0.0154325538
H        2.5346659643   -0.3761820037    3.5174517214
H       -1.5459316204   -1.6438650922    1.0813191305
H        1.1020249458   -4.4797282790    5.0378401325
