18   
torsion grid (-165,)
C        1.4215576509   -0.7883933644    1.2628172672
C        0.1713715018   -0.1940309553    1.0678639942
C        1.6245407058   -1.5754458450    2.3944144653
C       -0.8160790135   -0.4250707333    2.0279893289
C        0.5729567662   -1.7440344258    3.3135522135
C        1.8611760376   -2.3166934289    5.5177649246
C        1.7904712228   -3.6016420097    4.7358202381
C        0.7043056200   -2.5566606148    4.5545158548
N       -0.6332846181   -1.1763424980    3.1222027113
H        2.2226934392   -0.6452910275    0.5417256803
H       -0.0359728944    0.4248295327    0.1996524359
H        2.5872995247   -2.0490664579    2.5624658939
H       -1.8070307674    0.0131827508    1.9137318212
H        1.6450180464   -2.3380095358    6.5818019604
H        2.5991877653   -1.5780179540    5.2182806745
H        2.4994467494   -3.7558180877    3.9282945577
H        1.5136451152   -4.5099875455    5.2626335221
H       -0.2578438167   -2.7877252850    4.9995120395
18   
torsion grid (-150,)
C        1.3814499027   -0.8746178910    1.1857648554
C        0.1879348265   -0.1553942563    1.0914363569
C        1.5813773655   -1.7087141923    2.2858500151
C       -0.7526437210   -0.3170268315    2.1126172999
C        0.5864724568   -1.7933140092    3.2741850409
C        1.7304409809   -2.2702888274    5.5740045432
C        1.9038068563   -3.5355774028    4.7710787435
C        0.7162816449   -2.6373396083    4.4968126038
N       -0.5706287029   -1.1091188550    3.1759913015
H        2.1403597568   -0.7952768171    0.4111380344
H       -0.0156986265    0.5035302315    0.2522615427
H        2.4952272290   -2.2877870612    2.3713896906
H       -1.7026543040    0.2151856546    2.0734475690
H        1.4176309634   -2.3425535661    6.6114489931
H        2.3948057349   -1.4394437642    5.3547292325
H        2.7142877147   -3.5756479601    4.0504905746
H        1.6984816171   -4.4847611634    5.2570745483
H       -0.2434726599   -2.9960711656    4.8553186380
18   
torsion grid (-135,)
C        1.3313356256   -0.9617111775    1.1142890912
C        0.2063648681   -0.1355926355    1.1074582784
C        1.5291152112   -1.8221317200    2.1960457482
C       -0.6739896010   -0.2220287770    2.1910347253
C        0.6025417859   -1.8238304939    3.2500492082
C        1.6030010118   -2.2505107651    5.6225409030
C        2.0034084926   -3.4508105010    4.7958972107
C        0.7378944521   -2.6977809693    4.4539726129
N       -0.4922073064   -1.0371429515    3.2357184005
H        2.0380390620   -0.9450720865    0.2880987881
H        0.0066563672    0.5487069841    0.2877955777
H        2.3842352068   -2.4897650779    2.2163587851
H       -1.5721129968    0.3944510295    2.2186691012
H        1.2187171412   -2.4068951075    6.6260817539
H        2.1738264568   -1.3360660528    5.4905508895
H        2.8690457975   -3.3479471779    4.1491888384
H        1.8931428244   -4.4386460781    5.2334171333
H       -0.1955553638   -3.1814439273    4.7278725377
18   
torsion grid (-120,)
C        1.2752763053   -1.0457958827    1.0524567048
C        0.2254810209   -0.1283834949    1.1149709914
C        1.4716739378   -1.9168138732    2.1264706299
C       -0.5845080328   -0.1367649190    2.2558410985
C        0.6191725577   -1.8389761276    3.2377025620
C        1.4836791616   -2.2539265616    5.6634788830
C        2.0855525959   -3.3560500652    4.8179012191
C        0.7622565859   -2.7418662311    4.4222530604
N       -0.4030122421   -0.9624226356    3.2924301435
H        1.9250018938   -1.0887631369    0.1816468694
H        0.0302324410    0.5698723442    0.3059936139
H        2.2678854838   -2.6541081068    2.1026994665
H       -1.4220730188    0.5553996023    2.3386298331
H        1.0587297524   -2.5078101868    6.6299463778
H        1.9448795293   -1.2720573795    5.6136872991
H        2.9672641094   -3.1093995997    4.2339613379
H        2.0783207289   -4.3699037113    5.2072883518
H       -0.1223537748   -3.3464475198    4.6076811414
18   
torsion grid (-105,)
C        1.2096866203   -1.1247881891    0.9961727507
C        0.2419363376   -0.1260309372    1.1192238778
C        1.4082666940   -2.0001326792    2.0655576498
C       -0.4841611155   -0.0590601099    2.3129318656
C        0.6381315801   -1.8495473225    3.2286466848
C        1.3698766562   -2.2736038605    5.6953719725
C        2.1557041932   -3.2535519244    4.8472351457
C        0.7927990304   -2.7792167086    4.3934453297
N       -0.3005245286   -0.8912552740    3.3451937140
H        1.7957510873   -1.2223733334    0.0855112107
H        0.0491244712    0.5813282662    0.3175426913
H        2.1459407145   -2.7949264756    2.0068340698
H       -1.2517573176    0.7028444256    2.4457304292
H        0.9249018951   -2.6261162022    6.6210014769
H        1.7064475245   -1.2415333995    5.7186335759
H        3.0281881965   -2.8713955782    4.3247268129
H        2.2532343324   -4.2781076857    5.1944459815
H       -0.0200873365   -3.4967504972    4.4868343446
18   
torsion grid (-90,)
C        1.1331144296   -1.1979401416    0.9422952759
C        0.2616184137   -0.1214074875    1.1257482602
C        1.3346999047   -2.0816900982    2.0026819247
C       -0.3647539608    0.0123715401    2.3681874161
C        0.6592274397   -1.8678636941    3.2148425414
C        1.2528966872   -2.3043130033    5.7143997369
C        2.2149110296   -3.1402527508    4.8932063733
C        0.8331711663   -2.8187779251    4.3612486697
N       -0.1790463161   -0.8312408376    3.3926413837
H        1.6457253180   -1.3436702061   -0.0054793775
H        0.0716738811    0.5976519756    0.3338259086
H        2.0067571671   -2.9298954458    1.9062104307
H       -1.0494672170    0.8399381424    2.5511259908
H        0.8002516687   -2.7504204653    6.5948453041
H        1.4465462678   -1.2391978454    5.7948056013
H        3.0599107088   -2.6300876404    4.4388281271
H        2.4195700017   -4.1588214671    5.2104803983
H        0.1166524450   -3.6386001351    4.3651456180
18   
torsion grid (-75,)
C        1.0418790667   -1.2643850836    0.8908342324
C        0.2837946243   -0.1149333126    1.1343875745
C        1.2478874660   -2.1612988857    1.9375108492
C       -0.2263531314    0.0738934547    2.4207223832
C        0.6845474378   -1.8931652647    3.1968328408
C        1.1377759274   -2.3476063317    5.7217809698
C        2.2625702191   -3.0120736013    4.9547583705
C        0.8890738291   -2.8576772402    4.3269022148
N       -0.0373569092   -0.7850078416    3.4334603272
H        1.4672404525   -1.4523589047   -0.0920194084
H        0.0961464497    0.6181161416    0.3548582656
H        1.8395323719   -3.0620448485    1.7968492011
H       -0.8160786418    0.9600940423    2.6528720336
H        0.6903075635   -2.8879934370    6.5506225158
H        1.1720508088   -1.2702303277    5.8462128808
H        3.0575588585   -2.3759069192    4.5753265324
H        2.5813301296   -4.0070185390    5.2526108151
H        0.2915525126   -3.7646205864    4.2505169849
18   
torsion grid (-60,)
C        0.5335369508    0.3482386334    2.0548432079
C        0.3140239986   -0.4441726860    0.9229145864
C        1.0168566906   -0.2598493626    3.2108503565
C        0.5895529183   -1.8093702493    1.0158348733
C        1.2840402077   -1.6407949269    3.2052924874
C        1.5537409780   -3.7724190088    4.6803116221
C        0.7854928968   -2.7647188840    5.5060505912
C        1.7825033662   -2.3004579613    4.4544125961
N        1.0613887018   -2.4032850378    2.1225194873
H        0.3238003316    1.4149783199    2.0362499479
H       -0.0647666331   -0.0206160360   -0.0029503670
H        1.1890566841    0.3157096682    4.1167501073
H        0.4238369247   -2.4628129065    0.1599495993
H        2.3426337366   -4.3386416806    5.1665474912
H        1.0207191334   -4.3030747902    3.8989611338
H       -0.2683533167   -2.6267017364    5.2810547680
H        1.0491967227   -2.6322412686    6.5516207074
H        2.7261987430   -1.9039875718    4.8238263873
18   
torsion grid (-45,)
C        0.6429852766    0.3783350391    2.0126671968
C        0.2928603472   -0.4460820394    0.9379357323
C        1.1254188140   -0.2119683355    3.1781487003
C        0.4441173553   -1.8247904547    1.0956136463
C        1.2637641360   -1.6107520613    3.2380793381
C        1.6689803026   -3.7514154151    4.6714526991
C        0.7054113926   -2.8809841916    5.4402098070
C        1.7314549673   -2.2522140287    4.5042512280
N        0.9147639633   -2.4025128280    2.2104595989
H        0.5337267911    1.4579596872    1.9438129399
H       -0.0902908227   -0.0365224502    0.0076690809
H        1.3968989748    0.3925971547    4.0397789323
H        0.1749297457   -2.5028777655    0.2864118397
H        2.4772949945   -4.2275256409    5.2186448314
H        1.2811380142   -4.3125566614    3.8287236716
H       -0.3294012514   -2.8623215335    5.1106646220
H        0.8486051210   -2.7514548313    6.5093088486
H        2.5808009132   -1.7591311292    4.9712068702
18   
torsion grid (-30,)
C        0.7475829340    0.3930424512    1.9650625804
C        0.2795289648   -0.4459057668    0.9488014555
C        1.2165543614   -0.1808681899    3.1448756763
C        0.3055260740   -1.8237872623    1.1755117120
C        1.2219619493   -1.5811583736    3.2759723063
C        1.7737268322   -3.7141463934    4.6693473327
C        0.6543356182   -2.9991423218    5.3782128204
C        1.6655301782   -2.2085311412    4.5529967652
N        0.7608766239   -2.3862907517    2.3028088067
H        0.7406507980    1.4732684541    1.8412509037
H       -0.0976150047   -0.0487217279    0.0108358106
H        1.5795229528    0.4389709003    3.9606589665
H       -0.0567502991   -2.5125688730    0.4129290723
H        2.5915836958   -4.1076936205    5.2657964240
H        1.5213867357   -4.2812713618    3.7803336278
H       -0.3428189313   -3.0880800235    4.9575786920
H        0.6940446069   -2.8948455310    6.4587665855
H        2.4078309450   -1.6364879524    5.1033000457
18   
torsion grid (-15,)
C        0.8478609435    0.3907113810    1.9157244604
C        0.2776091968   -0.4458872881    0.9519406000
C        1.2883107298   -0.1680232838    3.1145396865
C        0.1778752532   -1.8082946823    1.2466521453
C        1.1570121729   -1.5527990956    3.3171918339
C        1.8641278699   -3.6614829960    4.6704670577
C        0.6295140387   -3.1113254581    5.3275595743
C        1.5848293166   -2.1703820061    4.6008085092
N        0.6012383990   -2.3564631729    2.3918787516
H        0.9439872006    1.4589557562    1.7372027962
H       -0.0814265704   -0.0596098550    0.0024366937
H        1.7320886169    0.4526837434    3.8885155567
H       -0.2645138256   -2.4948004998    0.5253523714
H        2.6882198653   -3.9822646261    5.3010018817
H        1.7310764569   -4.2133553204    3.7462233801
H       -0.3204781162   -3.2955083127    4.8355956876
H        0.5921809795   -3.0486050932    6.4113169239
H        2.2139465079   -1.5377666757    5.2206316733
18   
torsion grid (0,)
C        0.9429878803    0.3717025377    1.8699412764
C        0.2811185172   -0.4473574424    0.9510593647
C        1.3472408690   -0.1737641524    3.0878140023
C        0.0586264233   -1.7807386391    1.3066570858
C        1.0793831914   -1.5267656504    3.3573488666
C        1.9428535179   -3.5949550636    4.6745347424
C        0.6242209351   -3.2125925120    5.2834652289
C        1.4963876463   -2.1397105185    4.6454669558
N        0.4417881961   -2.3151363728    2.4718451424
H        1.1403492839    1.4162433512    1.6413895934
H       -0.0537435619   -0.0702576268   -0.0108642988
H        1.8642759328    0.4338439989    3.8258173266
H       -0.4537643692   -2.4536924555    0.6197134017
H        2.7693673586   -3.8496584583    5.3315870604
H        1.9170816782   -4.1166585852    3.7233777515
H       -0.2724355066   -3.4813362869    4.7345643657
H        0.5312488551   -3.1995558003    6.3655202006
H        2.0064721876   -1.4638278086    5.3258015171
18   
torsion grid (15,)
C        1.0353806270    0.3361953412    1.8287429010
C        0.2841653024   -0.4482175329    0.9487740080
C        1.4006563902   -0.2003886293    3.0624286150
C       -0.0609278559   -1.7394220557    1.3569906715
C        0.9971765983   -1.5061825396    3.3910602321
C        2.0167024545   -3.5135150819    4.6870619011
C        0.6343968129   -3.3044760843    5.2386819511
C        1.4030920090   -2.1174475768    4.6847650924
N        0.2802335346   -2.2633638181    2.5403830658
H        1.3336009990    1.3457712555    1.5565728903
H       -0.0247512795   -0.0766965054   -0.0239605852
H        1.9887621349    0.3786376347    3.7696112169
H       -0.6416694053   -2.3859788057    0.6997389969
H        2.8365980567   -3.7002619218    5.3746495085
H        2.0981078986   -3.9973194474    3.7186667341
H       -0.1983607834   -3.6535513303    4.6377423093
H        0.4939783841   -3.3443727542    6.3149114825
H        1.7863171570   -1.4136276332    5.4182185919
18   
torsion grid (30,)
C        1.1264927301    0.2826986551    1.7892488649
C        0.2816138581   -0.4475189687    0.9474307046
C        1.4554093884   -0.2502348872    3.0338606873
C       -0.1873761741   -1.6816797586    1.4030104272
C        0.9198170928   -1.4934934642    3.4153062598
C        2.0892388184   -3.4146286386    4.7165616670
C        0.6585551255   -3.3900109447    5.1848486455
C        1.3075870968   -2.1041423524    4.7183620607
N        0.1169043255   -2.1998686783    2.6002646798
H        1.5251668090    1.2451450454    1.4777516528
H       -0.0039912761   -0.0773600440   -0.0329665706
H        2.1163641808    0.2834959165    3.7118854134
H       -0.8417546470   -2.2860141737    0.7754999771
H        2.8835363422   -3.5289591678    5.4487321145
H        2.2902296286   -3.8512815688    3.7428595656
H       -0.0910647768   -3.8134199646    4.5257277415
H        0.4641731437   -3.4893135975    6.2487479886
H        1.5525573693   -1.3876308930    5.4979077035
18   
torsion grid (45,)
C        1.2113330369    0.2127614917    1.7495837977
C        0.2678545166   -0.4399869745    0.9489193914
C        1.5147691465   -0.3250201880    2.9978884918
C       -0.3187277563   -1.6044213590    1.4475141524
C        0.8566845084   -1.4925565409    3.4258006492
C        2.1576680209   -3.3015634182    4.7708736924
C        0.6991025973   -3.4691667855    5.1196324507
C        1.2169356899   -2.1022354023    4.7418171147
N       -0.0392743408   -2.1260689249    2.6508150275
H        1.7045264183    1.1174552497    1.4023682231
H       -0.0029633549   -0.0635236708   -0.0333592242
H        2.2509577558    0.1450661882    3.6449216541
H       -1.0517425631   -2.1482640538    0.8525382180
H        2.8985345590   -3.3451672220    5.5642611252
H        2.4924160783   -3.6805444710    3.8095742014
H        0.0587413539   -3.9573825700    4.3936313632
H        0.4373417651   -3.6344244446    6.1606161234
H        1.3093016034   -1.3891743893    5.5576431314
18   
torsion grid (60,)
C        1.2870052155    0.1290044133    1.7061328591
C        0.2461716746   -0.4254390073    0.9534032053
C        1.5757338494   -0.4220382305    2.9522330089
C       -0.4475405562   -1.5092894228    1.4941321304
C        0.8094413460   -1.5030415994    3.4240367854
C        2.2131113427   -3.1784339826    4.8486415134
C        0.7584740134   -3.5409707774    5.0479968894
C        1.1326344327   -2.1112013679    4.7543346306
N       -0.1813836424   -2.0430539588    2.6959616662
H        1.8644353294    0.9673131409    1.3239297268
H       -0.0179129999   -0.0355930289   -0.0255717930
H        2.3844297436   -0.0308371030    3.5642278407
H       -1.2588977608   -1.9757513363    0.9363656827
H        2.8729459055   -3.1603780423    5.7115600690
H        2.6865945945   -3.4840236359    3.9198117494
H        0.2544310626   -4.0802795145    4.2534594867
H        0.4228537900   -3.7803404384    6.0527073412
H        1.0609316947   -1.4198635933    5.5916767911
18   
torsion grid (75,)
C        1.3518408621    0.0339985457    1.6596265955
C        0.2248212696   -0.4069973622    0.9591582363
C        1.6295532905   -0.5342453495    2.9015216449
C       -0.5639722280   -1.4000692333    1.5440366233
C        0.7704401528   -1.5200149227    3.4167058235
C        2.2470747820   -3.0509924944    4.9359570357
C        0.8371951834   -3.6037387865    4.9789516513
C        1.0531030341   -2.1302738329    4.7571846210
N       -0.3077412940   -1.9501780507    2.7402285892
H        2.0019175396    0.7992441011    1.2424165707
H       -0.0349482490    0.0000359264   -0.0140212006
H        2.5007868756   -0.2305077754    3.4758759859
H       -1.4462745815   -1.7760052008    1.0270871619
H        2.8106431736   -2.9856112509    5.8624184597
H        2.8456065296   -3.2666141634    4.0550938231
H        0.4880577185   -4.1772147465    4.1265117361
H        0.4382884598   -3.9233559998    5.9370558583
H        0.8170665166   -1.4816768895    5.5992303675
18   
torsion grid (90,)
C        1.4042016823   -0.0681488940    1.6115632921
C        0.2084752870   -0.3896244692    0.9642649895
C        1.6708404576   -0.6522417076    2.8500250657
C       -0.6608006128   -1.2834629000    1.5961475910
C        0.7359019557   -1.5383494710    3.4086568521
C        2.2572773490   -2.9285142216    5.0229607347
C        0.9305213519   -3.6545390633    4.9166150458
C        0.9816996230   -2.1570824958    4.7524276209
N       -0.4149279071   -1.8490909963    2.7858140524
H        2.1137595476    0.6207805619    1.1596933273
H       -0.0464236037    0.0346580250   -0.0028334350
H        2.5899620897   -0.4345464204    3.3869138670
H       -1.6019782842   -1.5609756762    1.1225064765
H        2.7199519080   -2.8318769440    6.0010290105
H        2.9584567310   -3.0436798947    4.2008570320
H        0.7411852391   -4.2396111509    4.0220552568
H        0.4856605810   -4.0547439369    5.8227248853
H        0.5896956402   -1.5731678303    5.5836179188
18   
torsion grid (105,)
C        1.4399631966   -0.1700412023    1.5619676136
C        0.1929500802   -0.3755103527    0.9687234352
C        1.6992295581   -0.7643827861    2.7984066235
C       -0.7366514471   -1.1666985367    1.6517368159
C        0.7075325925   -1.5506598558    3.4041022326
C        2.2492922735   -2.8221244048    5.1071480274
C        1.0322053366   -3.6905056439    4.8586312638
C        0.9252999838   -2.1875658706    4.7427150261
N       -0.4979768386   -1.7431269741    2.8360482765
H        2.1941049620    0.4426020438    1.0738698907
H       -0.0588737415    0.0629421178    0.0071788129
H        2.6538270010   -0.6230950391    3.2964923408
H       -1.7227475266   -1.3463844249    1.2243426100
H        2.6082322224   -2.7115399174    6.1263219884
H        3.0323002435   -2.8354406692    4.3541482079
H        0.9977300611   -4.2607629997    3.9352641542
H        0.5537913470   -4.1715168822    5.7064551547
H        0.3932497309   -1.6904060872    5.5514871095
18   
torsion grid (120,)
C        1.4608843191   -0.2718138216    1.5110789184
C        0.1764030142   -0.3643858531    0.9732948120
C        1.7171527009   -0.8719034147    2.7459469554
C       -0.7943527311   -1.0517404452    1.7101029528
C        0.6845698334   -1.5569210828    3.4034124643
C        2.2264213798   -2.7306462593    5.1912479393
C        1.1395467128   -3.7106659020    4.8031043029
C        0.8807487301   -2.2185305354    4.7309745240
N       -0.5593211950   -1.6347260733    2.8908079746
H        2.2471580258    0.2632775709    0.9840546486
H       -0.0743554444    0.0854545294    0.0167967900
H        2.7002286207   -0.8040125977    3.2010118610
H       -1.8123896755   -1.1365749812    1.3308250359
H        2.4764955973   -2.6243150135    6.2427735136
H        3.0746716483   -2.6380256220    4.5196104948
H        1.2524052470   -4.2386266538    3.8608452527
H        0.6394875627   -4.2763615839    5.5834908240
H        0.2277046893   -1.8236997460    5.5056603191
18   
torsion grid (135,)
C        1.4724896855   -0.3777784473    1.4607876363
C        0.1627330736   -0.3486394518    0.9793733456
C        1.7251672582   -0.9892193918    2.6903942244
C       -0.8356466829   -0.9316302490    1.7667704956
C        0.6620069601   -1.5679706716    3.4004703735
C        2.1862743786   -2.6450473803    5.2754559748
C        1.2566276383   -3.7175361707    4.7559690990
C        0.8373075107   -2.2558130539    4.7148741783
N       -0.6053614628   -1.5257694069    2.9426854395
H        2.2827058829    0.0758986820    0.8950818459
H       -0.0853964971    0.1174915167    0.0300843419
H        2.7308659194   -1.0072356719    3.0973634409
H       -1.8736292735   -0.9179098368    1.4353474894
H        2.3242808504   -2.5575139868    6.3490926799
H        3.0791774691   -2.4319803055    4.6962561257
H        1.5074602217   -4.1843196463    3.8079903748
H        0.7549744136   -4.3684901219    5.4657752323
H        0.0814216894   -1.9707538914    5.4412672854
18   
torsion grid (150,)
C        1.4737511236   -0.4909801597    1.4134601684
C        0.1529876401   -0.3205790291    0.9925227438
C        1.7173692755   -1.1298637800    2.6293474964
C       -0.8628237443   -0.7999566557    1.8243602106
C        0.6323435397   -1.5960432842    3.3904150207
C        2.1294689993   -2.5549347008    5.3523279575
C        1.3924088337   -3.7107805015    4.7229685429
C        0.7902530214   -2.3106232959    4.6898978314
N       -0.6425008036   -1.4197797788    2.9899209382
H        2.3006028634   -0.1241572827    0.8101033134
H       -0.0874765295    0.1741973240    0.0559116337
H        2.7354846236   -1.2595162088    2.9820386930
H       -1.9079124571   -0.6774721520    1.5413725818
H        2.1594360079   -2.4934745663    6.4361390049
H        3.0322879935   -2.1996733697    4.8660615369
H        1.7726826733   -4.1002547243    3.7830697020
H        0.9228071770   -4.4490072891    5.3662840813
H       -0.0477112023   -2.1413180307    5.3588381263
18   
torsion grid (165,)
C        1.4669905235   -0.6060744209    1.3712956943
C        0.1550154998   -0.2788802536    1.0164694040
C        1.6916000941   -1.2924431771    2.5627725889
C       -0.8690933626   -0.6613477257    1.8854979514
C        0.5957522306   -1.6456212372    3.3711282198
C        2.0536506509   -2.4594332159    5.4128522814
C        1.5394372675   -3.6869983277    4.7084165628
C        0.7412721517   -2.3894943425    4.6529485825
N       -0.6675406508   -1.3247144792    3.0319886643
H        2.3011130537   -0.3256769564    0.7326338652
H       -0.0699566145    0.2585134144    0.0997548212
H        2.7036515078   -1.5527389117    2.8585108687
H       -1.9060623572   -0.4219081540    1.6521087157
H        1.9947231951   -2.4254714916    6.4966536035
H        2.9182712802   -1.9495122351    4.9994250761
H        2.0352458941   -3.9933822449    3.7917328560
H        1.1372332416   -4.5024893939    5.3021853565
H       -0.1578445702   -2.3465443322    5.2586644709
18   
torsion grid (180,)
C        1.4515355281   -0.7046168887    1.3266077199
C        0.1643664248   -0.2369639400    1.0430106466
C        1.6590121402   -1.4410951692    2.4900387221
C       -0.8524153680   -0.5373384097    1.9512367094
C        0.5721326712   -1.6951328771    3.3476781984
C        1.9660979859   -2.3788849194    5.4622689356
C        1.6703399819   -3.6490761795    4.7114566386
C        0.7095685947   -2.4729412177    4.6088598489
N       -0.6668256954   -1.2449436002    3.0745314083
H        2.2784244566   -0.4979266728    0.6514769057
H       -0.0469295868    0.3414614037    0.1482960473
H        2.6510144622   -1.8140446625    2.7295669432
H       -1.8703020771   -0.1934284805    1.7705228592
H        1.8364227912   -2.3710412036    6.5404147760
H        2.7675615876   -1.7409817973    5.1011745758
H        2.2686325806   -3.8817294223    3.8353838669
H        1.3358620369   -4.5170913009    5.2717149125
H       -0.2310394795   -2.5684421472    5.1407998691
