18   
torsion grid (-165,)
C       -2.1408637747    1.5509001160   -1.0512817345
C       -0.7836843484    1.2087158191   -1.6928311834
C        0.1938693329    2.3948016092   -1.5795199570
C       -0.1908083240   -0.0374025849   -1.0844430436
C        0.0905796058   -1.1674861995   -1.7444416617
C        0.6842575304   -2.4067178147   -1.1309323717
H       -2.8434211349    0.7168393745   -1.1475011400
H       -2.5850288866    2.4327672869   -1.5265357345
H       -2.0258719717    1.7706537527    0.0174407181
H       -0.9585844723    1.0143117715   -2.7588464136
H        1.0490230312    2.2650887752   -2.2504535304
H        0.5697533353    2.5042385223   -0.5556428121
H       -0.3013436813    3.3337779392   -1.8542031024
H        0.0191138412    0.0142601479   -0.0122315808
H       -0.1206787992   -1.2120230134   -2.8150326468
H        0.0209793963   -3.2708998708   -1.2633534751
H        0.8628021332   -2.2768317811   -0.0589976879
H        1.6390191105   -2.6653650563   -1.6061463427
18   
torsion grid (-150,)
C       -2.1822367203    1.4611540067   -1.0964243210
C       -0.8079086922    1.1319286706   -1.7081888985
C        0.1631875520    2.3276474427   -1.5760387462
C       -0.2186516788   -0.1162095100   -1.1010669660
C        0.0808020045   -1.2385993275   -1.7662398693
C        0.6702400103   -2.4802148304   -1.1534963462
H       -2.8714495141    0.6166963420   -1.1991916206
H       -2.6271240108    2.3322473537   -1.5901177895
H       -2.0931072184    1.6930137434   -0.0276484211
H       -0.9664374151    0.9407414915   -2.7770466160
H        0.8840598679    2.3439280434   -2.3994221324
H        0.7125744553    2.3010335923   -0.6288893546
H       -0.3827240796    3.2778314418   -1.6149122128
H       -0.0282070998   -0.0731696519   -0.0248339440
H       -0.1103665098   -1.2739090663   -2.8409135102
H        0.0144293835   -3.3467623632   -1.3061091423
H        0.8283470112   -2.3594795279   -0.0772892653
H        1.6350034731   -2.7290565284   -1.6134782540
18   
torsion grid (-135,)
C       -2.1859057693    1.4372248590   -1.1306489779
C       -0.8004603297    1.1126596617   -1.7198083620
C        0.1694155981    2.3160196178   -1.5755871350
C       -0.2216190010   -0.1342684036   -1.0997847907
C        0.0781390292   -1.2612818148   -1.7569017923
C        0.6555118572   -2.5028893707   -1.1327320760
H       -2.8724596918    0.5927466676   -1.2502766500
H       -2.6228883936    2.3106603707   -1.6274730155
H       -2.1150591089    1.6635438301   -0.0594059257
H       -0.9434060654    0.9134927234   -2.7888664095
H        0.7240098738    2.4926730043   -2.5022638425
H        0.8919197627    2.1630186596   -0.7677225967
H       -0.3779981995    3.2398315831   -1.3557987831
H       -0.0405845534   -0.0862567272   -0.0221152884
H       -0.1031234087   -1.3005765322   -2.8331424557
H       -0.0033802296   -3.3668245596   -1.2869335833
H        0.8044815929   -2.3776625275   -0.0557260235
H        1.6230947357   -2.7590031211   -1.5826800261
18   
torsion grid (-120,)
C       -2.1869041772    1.4202553415   -1.1633227938
C       -0.7918837882    1.1110093056   -1.7386120450
C        0.1665978406    2.3251573401   -1.5705807804
C       -0.2198123144   -0.1321783227   -1.1031180038
C        0.0776886588   -1.2678616329   -1.7461073340
C        0.6453961391   -2.5055121178   -1.1052473223
H       -2.8721126445    0.5800344113   -1.3158959789
H       -2.6176012949    2.3078452506   -1.6409624278
H       -2.1290431134    1.6166233294   -0.0856981853
H       -0.9135367915    0.9071642049   -2.8088504571
H        0.5301589088    2.6825333312   -2.5390021729
H        1.0439941895    2.0667832165   -0.9697033364
H       -0.3323695763    3.1670071459   -1.0785141800
H       -0.0448638722   -0.0738401392   -0.0249895523
H       -0.0983680786   -1.3181981846   -2.8227653767
H       -0.0177072550   -3.3674416303   -1.2525041088
H        0.7900694931   -2.3688498518   -0.0290344755
H        1.6135698455   -2.7723441671   -1.5476660397
18   
torsion grid (-105,)
C       -2.1941261306    1.4053276067   -1.1922645631
C       -0.7924835967    1.1107617192   -1.7593289457
C        0.1501561283    2.3319282685   -1.5710352388
C       -0.2213608421   -0.1248058934   -1.1066522560
C        0.0776023510   -1.2682549296   -1.7349203203
C        0.6432221073   -2.4983372199   -1.0777140159
H       -2.8788790365    0.5711437469   -1.3762674112
H       -2.6203164015    2.3076729812   -1.6465704179
H       -2.1450277426    1.5692538666   -0.1091139087
H       -0.8923714222    0.9037409431   -2.8310561508
H        0.3061068945    2.8625093928   -2.5159093614
H        1.1401463091    2.0183235568   -1.2248269848
H       -0.2464523178    3.0436308574   -0.8394107132
H       -0.0498583927   -0.0536043972   -0.0287358129
H       -0.0958749404   -1.3318250168   -2.8113426890
H       -0.0200341786   -3.3616736047   -1.2158117998
H        0.7855408929   -2.3485557292   -0.0029285441
H        1.6122500048   -2.7711946620   -1.5145908732
18   
torsion grid (-90,)
C       -2.2439844723    1.3439880854   -1.1987530359
C       -0.8357899600    1.0802141531   -1.7644792168
C        0.0769861280    2.3136864847   -1.5582467834
C       -0.2431600913   -0.1445274306   -1.1100002269
C        0.0794153602   -1.2821292715   -1.7371460067
C        0.6666510306   -2.5010025158   -1.0779826742
H       -2.9165183222    0.5046229278   -1.4027377334
H       -2.6816302912    2.2498740505   -1.6351752897
H       -2.2007596579    1.4855165611   -0.1123584675
H       -0.9194647630    0.8798817608   -2.8391531940
H        0.0146449912    2.9974042990   -2.4117947268
H        1.1270532160    2.0130246056   -1.4799246010
H       -0.1828461490    2.8624627133   -0.6466709029
H       -0.0764666383   -0.0703089765   -0.0315010827
H       -0.0901521975   -1.3496325357   -2.8139843110
H        0.0199814218   -3.3767293917   -1.2167536503
H        0.8040687231   -2.3477940135   -0.0030426277
H        1.6414789297   -2.7559492998   -1.5127808300
18   
torsion grid (-75,)
C       -2.1987878013    1.4086036329   -1.2544802458
C       -0.7850375911    1.1049536223   -1.7843331158
C        0.1485853192    2.3133829846   -1.5664455971
C       -0.2321565576   -0.1270221041   -1.1096114274
C        0.0905899505   -1.2716236340   -1.7238606677
C        0.6391843340   -2.4972464541   -1.0443018359
H       -2.8849877764    0.5812553912   -1.4617601272
H       -2.6059344603    2.3171262244   -1.7140489781
H       -2.1782302261    1.5652351012   -0.1694001662
H       -0.8474192120    0.9032605123   -2.8607597657
H       -0.0692784854    3.1112915803   -2.2854001003
H        1.1957010010    2.0273266400   -1.7113969201
H        0.0472341326    2.7183013151   -0.5530758550
H       -0.0958236015   -0.0520691813   -0.0268976546
H       -0.0487625920   -1.3403249168   -2.8049491156
H       -0.0167703369   -3.3632600453   -1.1994530508
H        0.7476614864   -2.3425792492    0.0337257525
H        1.6221391335   -2.7686885909   -1.4498162037
18   
torsion grid (-60,)
C       -2.2003480692    1.4132756349   -1.2820050616
C       -0.7824417009    1.0904129130   -1.7879950717
C        0.1590474908    2.2895806383   -1.5723750468
C       -0.2422053204   -0.1427153613   -1.1067322852
C        0.1009907384   -1.2825443422   -1.7188989075
C        0.6390989112   -2.5089563659   -1.0325553828
H       -2.8855117926    0.5806238013   -1.4706235485
H       -2.5996658111    2.3067362593   -1.7759196214
H       -2.1937597763    1.6047696338   -0.2020690174
H       -0.8385288787    0.8870137369   -2.8649895020
H       -0.2018216577    3.1729692209   -2.1117466266
H        1.1702957292    2.0640219701   -1.9259769353
H        0.2248391993    2.5488230387   -0.5087443482
H       -0.1318802654   -0.0726034604   -0.0207624013
H       -0.0117544622   -1.3462050397   -2.8033676496
H       -0.0080199557   -3.3775457802   -1.2088884882
H        0.7199152081   -2.3597701721    0.0486563212
H        1.6333005412   -2.7727560879   -1.4150224195
18   
torsion grid (-45,)
C       -2.2075802581    1.4252355988   -1.3049479749
C       -0.7842610948    1.0875420280   -1.7850738069
C        0.1645842940    2.2834053227   -1.5749022905
C       -0.2542536158   -0.1456811681   -1.0975367490
C        0.1096093514   -1.2805886710   -1.7070033530
C        0.6396585374   -2.5069008929   -1.0143710920
H       -2.8886401133    0.5841326742   -1.4697023756
H       -2.6018763442    2.2977651788   -1.8379671871
H       -2.2154137300    1.6579440398   -0.2328208431
H       -0.8364032388    0.8783641910   -2.8614092370
H       -0.3014624617    3.2199984409   -1.9018115357
H        1.1066027431    2.1453661926   -2.1142612792
H        0.4048106023    2.4015848014   -0.5108513601
H       -0.1679784028   -0.0794257408   -0.0091684045
H        0.0218358077   -1.3395732285   -2.7940067142
H        0.0026942263   -3.3787753441   -1.2103070185
H        0.6941566227   -2.3628282994    0.0691692953
H        1.6442832081   -2.7620707044   -1.3748005807
18   
torsion grid (-30,)
C       -2.2491700826    1.2279671255   -1.4185013420
C       -0.8092866464    0.9105460994   -1.8623882160
C        0.1236797149    2.1209297441   -1.6309476370
C       -0.2783919945   -0.3223960534   -1.1758272573
C        0.1131920542   -1.4463489731   -1.7884363708
C        0.6435824048   -2.6728945598   -1.0965234496
H       -2.9114163623    0.3731104290   -1.5895166090
H       -2.6443676117    2.0871310885   -1.9717685511
H       -2.2875789425    1.4730975769   -0.3496214546
H       -0.8407962550    0.7050934811   -2.9400472541
H       -0.4208043868    3.0680117410   -1.7153359821
H        0.9662302641    2.1218515599   -2.3284322563
H        0.5392508486    2.0964841756   -0.6159842144
H       -0.2166732018   -0.2658978688   -0.0852366495
H        0.0505783495   -1.4948194082   -2.8776650069
H        0.0226623810   -3.5507818687   -1.3157160032
H        0.6717651438   -2.5395520326   -0.0106080917
H        1.6593195797   -2.9112760447   -1.4367039836
18   
torsion grid (-15,)
C       -2.2539286127    1.1554812686   -1.4620532107
C       -0.8045252563    0.8410439232   -1.8772832984
C        0.1274570946    2.0568196299   -1.6286650515
C       -0.2910902445   -0.3942381655   -1.1813066380
C        0.0952164679   -1.5241098001   -1.7862971524
C        0.6064990001   -2.7533167360   -1.0847560535
H       -2.9123165876    0.3014618865   -1.6515720846
H       -2.6374612643    2.0177290405   -2.0188796016
H       -2.3140684932    1.3950730612   -0.3929958311
H       -0.8170655096    0.6318783879   -2.9540246648
H       -0.4437738882    2.9763467058   -1.4614061028
H        0.8196190880    2.2145732840   -2.4606668072
H        0.7345929758    1.9048712492   -0.7288964139
H       -0.2394372873   -0.3346016194   -0.0903629482
H        0.0429929726   -1.5756108525   -2.8759236491
H       -0.0215297048   -3.6255762029   -1.3061643624
H        0.6260359389   -2.6159848339    0.0008625336
H        1.6227867419   -3.0036495987   -1.4145551927
18   
torsion grid (0,)
C       -2.2488451583    1.1384447440   -1.4939214800
C       -0.7913480819    0.8382361949   -1.8917704731
C        0.1289157202    2.0627343580   -1.6183783221
C       -0.2903546204   -0.3947760079   -1.1810451641
C        0.0941620189   -1.5316947955   -1.7737379072
C        0.5903075444   -2.7592202123   -1.0583473185
H       -2.9031745658    0.2908877302   -1.7225367275
H       -2.6251589464    2.0187035490   -2.0277344551
H       -2.3251065097    1.3427057472   -0.4188981489
H       -0.7798767188    0.6255464411   -2.9671587775
H       -0.4319607147    2.9035350677   -1.1963891970
H        0.6124127437    2.4121809752   -2.5357602576
H        0.9253936000    1.8152181707   -0.9095211881
H       -0.2494706762   -0.3273694437   -0.0901010420
H        0.0519170945   -1.5910484510   -2.8634217627
H       -0.0416844852   -3.6287998687   -1.2790887807
H        0.6004849283   -2.6139322096    0.0263772677
H        1.6079078760   -3.0191428169   -1.3765090637
18   
torsion grid (15,)
C       -2.2108816245    1.0051172929   -0.8108480975
C       -0.9893538855    0.8194856835   -1.7305761621
C       -0.0766750898    2.0769482439   -1.7009850631
C       -0.2246017454   -0.4183257277   -1.3279424545
C       -0.0506196060   -1.5062528318   -2.0880341388
C        0.7098389686   -2.7390070706   -1.6794018614
H       -2.8882852542    0.1474425018   -0.8750603869
H       -2.7720339997    1.9079819026   -1.0797142387
H       -1.8944866989    1.1083666619    0.2339628092
H       -1.3495376353    0.6680184502   -2.7546418762
H       -0.3201189794    2.7296239110   -0.8554634607
H       -0.2131098775    2.6781225268   -2.6064712166
H        0.9829630911    1.8128922996   -1.6420286056
H        0.2114003686   -0.3991916630   -0.3249777360
H       -0.4883655645   -1.5179654652   -3.0885678253
H        0.0669542709   -3.6280038753   -1.7061887751
H        1.1137394174   -2.6430035053   -0.6667310857
H        1.5464580889   -2.9333247508   -2.3625108245
18   
torsion grid (30,)
C       -2.2143624055    1.0132667322   -0.8447990660
C       -0.9818874721    0.8220574603   -1.7482084439
C       -0.0687963884    2.0711003390   -1.6972010540
C       -0.2263317569   -0.4157210754   -1.3274702616
C       -0.0434919243   -1.5082977924   -2.0787446152
C        0.7082158472   -2.7402231866   -1.6517853564
H       -2.9020956744    0.1657664070   -0.9293571674
H       -2.7602276068    1.9269784947   -1.1091952185
H       -1.9110686820    1.0986661714    0.2053248354
H       -1.3202956428    0.6740433113   -2.7805345702
H       -0.1392865434    2.5736709181   -0.7257188264
H       -0.3877521317    2.8080490839   -2.4436463091
H        0.9773172639    1.8243749826   -1.8984571429
H        0.1945802226   -0.3922819765   -0.3181400011
H       -0.4667269086   -1.5252277223   -3.0854642571
H        0.0635430054   -3.6278372857   -1.6814915665
H        1.0986114934   -2.6384822712   -0.6343893163
H        1.5535356363   -2.9410652022   -2.3221837008
18   
torsion grid (45,)
C       -2.1767254867    1.0986022186   -0.9006111472
C       -0.9292322115    0.8633588642   -1.7719642008
C        0.0089886254    2.0862410617   -1.7166048114
C       -0.2093956004   -0.3849241639   -1.3218386690
C       -0.0256193708   -1.4860406341   -2.0603473876
C        0.6915212983   -2.7280436927   -1.6042122314
H       -2.8796597849    0.2635969682   -0.9837219241
H       -2.6972451968    2.0174497329   -1.1959199324
H       -1.8966242250    1.1992144373    0.1547384427
H       -1.2477317777    0.7148556078   -2.8111529216
H        0.1285265938    2.4412169348   -0.6859558001
H       -0.4155885987    2.9207999055   -2.2873817521
H        0.9960814277    1.8590208232   -2.1297711806
H        0.1835960248   -0.3618073660   -0.3013024915
H       -0.4210983352   -1.5029619044   -3.0782891458
H        0.0321476693   -3.6042664646   -1.6465351120
H        1.0548275740   -2.6260896711   -0.5768631345
H        1.5516739568   -2.9484152091   -2.2491151746
18   
torsion grid (60,)
C       -2.1867370535    1.1167472855   -0.9197011965
C       -0.9275681319    0.8629817207   -1.7685779997
C        0.0175201314    2.0774951225   -1.7173807426
C       -0.2178076392   -0.3864964265   -1.3085386822
C       -0.0126699799   -1.4822869635   -2.0494217309
C        0.6963741320   -2.7252822185   -1.5836542501
H       -2.8823047612    0.2739392844   -0.9843770854
H       -2.7092257771    2.0210315295   -1.2527693133
H       -1.9231107044    1.2543305957    0.1360346602
H       -1.2386203295    0.7133204785   -2.8103700567
H        0.3351337198    2.2808123838   -0.6873850219
H       -0.4827412604    2.9779734580   -2.0923354883
H        0.9148978604    1.9062660381   -2.3203039947
H        0.1500920389   -0.3688851916   -0.2786083989
H       -0.3825724695   -1.4935293367   -3.0769822922
H        0.0410424164   -3.6031017402   -1.6490413851
H        1.0330483313   -2.6294745142   -0.5466991798
H        1.5733671278   -2.9384314319   -2.2079607529
18   
torsion grid (75,)
C       -2.2024209123    1.1185810157   -0.9428329018
C       -0.9302443189    0.8518236939   -1.7682645352
C        0.0212564070    2.0632184832   -1.7213279289
C       -0.2293116717   -0.3993034044   -1.3019656434
C       -0.0014924796   -1.4873085672   -2.0477535872
C        0.7003696608   -2.7320811833   -1.5761204711
H       -2.8891843954    0.2673733885   -0.9910301146
H       -2.7273985078    2.0066372237   -1.3124955844
H       -1.9566833260    1.2919136786    0.1122509656
H       -1.2358116108    0.6996684738   -2.8114857439
H        0.5319082405    2.1227970508   -0.7526353895
H       -0.5172653662    3.0027814841   -1.8872239154
H        0.7999342206    1.9732303413   -2.4861288119
H        0.1131331418   -0.3897209977   -0.2632104915
H       -0.3453606995   -1.4898306617   -3.0843359860
H        0.0506000518   -3.6117102356   -1.6673850206
H        1.0096509811   -2.6454776948   -0.5298740578
H        1.5941100926   -2.9353840460   -2.1795954094
18   
torsion grid (90,)
C       -2.2418636243    1.0478021046   -0.9850003120
C       -0.9491077520    0.7894871894   -1.7811660616
C       -0.0002748244    2.0081687791   -1.7160818504
C       -0.2534941329   -0.4633960812   -1.3129938464
C       -0.0047737232   -1.5423380166   -2.0652833635
C        0.6917412191   -2.7893613931   -1.5917406989
H       -2.9182442741    0.1887615645   -1.0420967562
H       -2.7669865266    1.9271327799   -1.3742981884
H       -2.0226614772    1.2323031875    0.0741789245
H       -1.2388638544    0.6397818391   -2.8289521812
H        0.6816401392    1.9336794127   -0.8612145685
H       -0.5505277505    2.9524557943   -1.6487478075
H        0.6352495862    2.0470571474   -2.6073825272
H        0.0661470321   -0.4632594276   -0.2669619373
H       -0.3254132771   -1.5345326802   -3.1092242444
H        0.0481802191   -3.6706235839   -1.7077898150
H        0.9765921492   -2.7133821631   -0.5377618383
H        1.5999531553   -2.9819664731   -2.1768246112
18   
torsion grid (105,)
C       -2.2274602040    1.2956293952   -0.8704794085
C       -0.9219002406    1.0332271302   -1.6445112686
C        0.0229541607    2.2633010292   -1.5875707666
C       -0.2304843710   -0.2105192873   -1.1460519951
C        0.0196660453   -1.3058407513   -1.8737951021
C        0.7108880093   -2.5439038637   -1.3698909701
H       -2.8989496013    0.4325770002   -0.9257002791
H       -2.7510706045    2.1670854765   -1.2792716483
H       -2.0237083806    1.4957066237    0.1888806390
H       -1.1983241516    0.8607016213   -2.6917846284
H        0.8581345672    2.0944967160   -0.8994648777
H       -0.5031653334    3.1732667301   -1.2815807924
H        0.4738631099    2.4507944157   -2.5677448737
H        0.0839424656   -0.1885193594   -0.0986801533
H       -0.2952881147   -1.3194775382   -2.9193957798
H        0.0654610231   -3.4258711576   -1.4690788201
H        0.9914729824   -2.4454244879   -0.3166201647
H        1.6210493039   -2.7518145290   -1.9466498993
18   
torsion grid (120,)
C       -2.1874136420    1.4327752918   -0.8736008168
C       -0.8765183429    1.1746999940   -1.6402337326
C        0.0619561062    2.4143709724   -1.5810263489
C       -0.1882229430   -0.0606611390   -1.1144473096
C        0.0505902431   -1.1756635510   -1.8155142405
C        0.7353719148   -2.4058238646   -1.2839728233
H       -2.8637667189    0.5749944873   -0.9479255680
H       -2.7036667429    2.3145869123   -1.2702368837
H       -1.9879097149    1.6135333055    0.1897565334
H       -1.1387924310    0.9846820220   -2.6875545720
H        1.0189487752    2.1723688441   -1.1082963504
H       -0.3886715608    3.2378801579   -1.0170344543
H        0.2891181574    2.7879120459   -2.5844568162
H        0.1308239530   -0.0150111796   -0.0692279845
H       -0.2695420046   -1.2132669222   -2.8589802657
H        0.0830451841   -3.2852298820   -1.3576373927
H        1.0218517312   -2.2829590780   -0.2348440474
H        1.6411533843   -2.6350853666   -1.8595544677
18   
torsion grid (135,)
C       -2.1830979734    1.4483855358   -0.9143574271
C       -0.8636337576    1.1958290763   -1.6678269142
C        0.0694889411    2.4358865866   -1.5851637720
C       -0.1836604699   -0.0351656503   -1.1188202653
C        0.0551304510   -1.1614690830   -1.8014219791
C        0.7302583396   -2.3868800474   -1.2468764450
H       -2.8688154784    0.6018141249   -1.0227480967
H       -2.6844703843    2.3481942235   -1.2901536668
H       -1.9938931604    1.5949732549    0.1557773626
H       -1.1011018630    1.0013652701   -2.7201586450
H        1.0999301413    2.1505956304   -1.3529842234
H       -0.2544455603    3.1202261265   -0.7926097049
H        0.0742435878    3.0005936198   -2.5225219537
H        0.1271527481    0.0239451851   -0.0717483838
H       -0.2577639712   -1.2133123424   -2.8465085875
H        0.0742864669   -3.2642456484   -1.3121237356
H        1.0098734329   -2.2497972856   -0.1976493448
H        1.6390144333   -2.6289685541   -1.8124559284
18   
torsion grid (150,)
C       -2.1825408427    1.4525780873   -0.9509989842
C       -0.8537498577    1.1962332028   -1.6863217635
C        0.0773635478    2.4284820574   -1.5797999806
C       -0.1848942057   -0.0331373572   -1.1198162457
C        0.0591798047   -1.1650774293   -1.7910842296
C        0.7228471699   -2.3885299752   -1.2186620304
H       -2.8746308213    0.6143053131   -1.0804520164
H       -2.6703263180    2.3620950280   -1.3218318208
H       -2.0075411485    1.5833264606    0.1234159710
H       -1.0678318929    1.0044460585   -2.7445231386
H        1.1321289892    2.1377516704   -1.5969217128
H       -0.0844379710    2.9501417844   -0.6284543798
H       -0.1093052041    3.1474469152   -2.3838617355
H        0.1118989232    0.0321246413   -0.0690009363
H       -0.2404172654   -1.2239267427   -2.8397143482
H        0.0641641345   -3.2638303723   -1.2844097544
H        0.9907664413   -2.2438641012   -0.1674033800
H        1.6371460961   -2.6388495754   -1.7715842049
18   
torsion grid (165,)
C       -2.1237096376    1.5370118580   -1.0038423905
C       -0.7861884987    1.2248362469   -1.7001487371
C        0.1786257947    2.4226226742   -1.5848134346
C       -0.1684169832   -0.0169136087   -1.1043225048
C        0.0693858698   -1.1591444186   -1.7603130353
C        0.6834733616   -2.3944108078   -1.1587428017
H       -2.8379816527    0.7178681387   -1.1347270697
H       -2.5733926393    2.4531572257   -1.4049403068
H       -1.9730107191    1.6839387300    0.0722769255
H       -0.9788610995    1.0313507912   -2.7626950203
H        1.2044894468    2.1327159164   -1.8327628702
H        0.1952726878    2.8018630727   -0.5552604656
H       -0.1287123219    3.2478594788   -2.2361964244
H        0.0954610899    0.0483365941   -0.0447774575
H       -0.1972533827   -1.2181929178   -2.8177958515
H        0.0061125012   -3.2538797598   -1.2413086410
H        0.9198455616   -2.2491326484   -0.1000399842
H        1.6092025084   -2.6705022716   -1.6794301430
18   
torsion grid (180,)
C       -2.1308972208    1.5407663956   -1.0305372778
C       -0.7845725694    1.2107277451   -1.7006945640
C        0.1869648773    2.3997151434   -1.5857399100
C       -0.1801617679   -0.0334158832   -1.0979592927
C        0.0802343538   -1.1694125893   -1.7563281569
C        0.6833375789   -2.4068276904   -1.1482356239
H       -2.8408592888    0.7153428404   -1.1443783113
H       -2.5768534782    2.4415870969   -1.4679110701
H       -1.9970196170    1.7230040136    0.0427145269
H       -0.9678661673    1.0181969769   -2.7655126924
H        1.1467745973    2.1722290129   -2.0604267488
H        0.3838361255    2.6401286355   -0.5337177412
H       -0.2305385629    3.2957329116   -2.0592233633
H        0.0553610878    0.0246929087   -0.0313891740
H       -0.1574260550   -1.2210313310   -2.8210732717
H        0.0127625532   -3.2686995155   -1.2568974258
H        0.8895733451   -2.2694434251   -0.0822167585
H        1.6244950541   -2.6740465301   -1.6453493166
