18   
torsion grid (-165,)
C        5.9808516444    0.6409249966   -0.2243044346
C        4.8972484898   -0.1017727847   -0.7757460358
C        5.8235019173    1.4321765544    0.8834279414
C        3.6633143606   -0.0232069131   -0.1775776318
C        4.5377019655    1.5456187973    1.5402982168
C        1.0984550052   -0.3608354518   -0.1270198770
C        2.4636348989   -0.8150610927   -0.6568398425
N        3.5265121454    0.7692849673    0.9282002070
O        4.2618687836    2.2246208142    2.5340954002
H        6.9570770752    0.5763807918   -0.7002063912
H        5.0310108095   -0.7237391451   -1.6541282831
H        6.6407539254    2.0043221664    1.3089390297
H        1.0077744257   -0.4988206850    0.9560514545
H        0.3052260179   -0.9566781643   -0.5870436015
H        0.9002178029    0.6907564504   -0.3595416347
H        2.4633633569   -0.7877160984   -1.7508605807
H        2.6209645173   -1.8652785894   -0.3810982611
H        2.6230129728    0.8560537259    1.3821478128
18   
torsion grid (-150,)
C        5.9450093342    0.6873337057   -0.3197870644
C        4.8533152558   -0.0716024128   -0.8355559408
C        5.8322527992    1.4199099674    0.8318037410
C        3.6599603191   -0.0672302078   -0.1572431720
C        4.5888788206    1.4523731636    1.5761883117
C        1.0914173928   -0.2988350918   -0.2289655651
C        2.4641741940   -0.8922203901   -0.5761645065
N        3.5678752398    0.6683870184    0.9933691531
O        4.3590224015    2.0729665474    2.6183532235
H        6.8893076782    0.6823803054   -0.8600726522
H        4.9513423972   -0.6472511990   -1.7491971069
H        6.6544006225    2.0034843783    1.2316612178
H        0.9184925675   -0.2504111595    0.8516394143
H        0.2986227119   -0.9277657154   -0.6439040103
H        0.9733562478    0.7092175329   -0.6388364717
H        2.5359631946   -1.0559653613   -1.6549359821
H        2.5525606844   -1.8824848234   -0.1098342597
H        2.6938197677    0.6975276644    1.5082729359
18   
torsion grid (-135,)
C        5.8888440208    0.7454938002   -0.4220235830
C        4.7913800905   -0.0394953052   -0.8875851734
C        5.8296070031    1.4352955884    0.7587660303
C        3.6490128226   -0.1012217525   -0.1306767562
C        4.6410410513    1.3934814128    1.5893588922
C        1.0934064165   -0.2226436331   -0.3371627940
C        2.4459342228   -0.9376200535   -0.4909601703
N        3.6106519781    0.5926295749    1.0501742946
O        4.4668285843    1.9673947677    2.6681564880
H        6.7928925852    0.7940509476   -1.0252848044
H        4.8468344966   -0.5820701400   -1.8244660139
H        6.6560482845    2.0361230444    1.1226938456
H        0.8742812932    0.0367887966    0.7039425304
H        0.2840045301   -0.8738627458   -0.6798829541
H        1.0637864100    0.6990639081   -0.9263273694
H        2.5711126902   -1.2767325162   -1.5224717606
H        2.4493630689   -1.8399290377    0.1353728758
H        2.7765245935    0.5634179769    1.6280381056
18   
torsion grid (-120,)
C        5.8283925096    0.8170966099   -0.4667886994
C        4.7399353871    0.0002021192   -0.8994568143
C        5.8122020259    1.4544850517    0.7441293591
C        3.6518462808   -0.1450750331   -0.0779168886
C        4.6811131861    1.3236574324    1.6439224338
C        1.1284339419   -0.1791902147   -0.4510273890
C        2.4420214072   -0.9807237810   -0.4075409711
N        3.6566193376    0.4986329065    1.1325284559
O        4.5523799126    1.8430426847    2.7561630662
H        6.6905416056    0.9321094930   -1.1202520473
H        4.7602575753   -0.5002476696   -1.8608128946
H        6.6331272541    2.0764269800    1.0843031502
H        0.8820343902    0.2587862197    0.5217082662
H        0.2968000403   -0.8299894781   -0.7372827956
H        1.1923181040    0.6366557483   -1.1774197017
H        2.6142658429   -1.4624818348   -1.3732287214
H        2.3533869972   -1.7858802956    0.3340059926
H        2.8629618438    0.4010714728    1.7586536148
18   
torsion grid (-105,)
C        5.7463386459    0.8863035168   -0.4954053330
C        4.6661197065    0.0415611971   -0.8932696955
C        5.7780013610    1.4794686614    0.7376731220
C        3.6375102775   -0.1780569870   -0.0136228788
C        4.7090877424    1.2711069391    1.6969953467
C        1.1630612772   -0.1460461738   -0.5725976722
C        2.4166181599   -1.0048067152   -0.3195197188
N        3.6879011086    0.4230854353    1.2175153532
O        4.6277413304    1.7463854402    2.8331353206
H        6.5628081225    1.0592397723   -1.1933234984
H        4.6472572430   -0.4244716838   -1.8719539694
H        6.5935222875    2.1217056153    1.0523431751
H        0.9044788860    0.4591950329    0.3023339798
H        0.3040918324   -0.7831141406   -0.8050059584
H        1.3244373496    0.5352238702   -1.4132921301
H        2.6270689680   -1.6179950841   -1.1997856464
H        2.2288606349   -1.6984209924    0.5100828038
H        2.9366806955    0.2694805260    1.8840355296
18   
torsion grid (-90,)
C        5.6704739488    0.9232339847   -0.5309376036
C        4.5824307063    0.0780777056   -0.9024167247
C        5.7756698274    1.4483823949    0.7292261836
C        3.6218115370   -0.2147730588    0.0319283251
C        4.7796873697    1.1637020155    1.7448629021
C        1.2023111923   -0.1451455883   -0.7060911698
C        2.3827978199   -1.0239518969   -0.2506335039
N        3.7432871292    0.3209212182    1.2872998940
O        4.7656703385    1.5726750566    2.9093638376
H        6.4338276280    1.1531432156   -1.2712083400
H        4.5051386701   -0.3340941800   -1.9023593171
H        6.5988002957    2.0906068919    1.0232588759
H        0.9423620052    0.5978688262    0.0547660313
H        0.3172943487   -0.7605707469   -0.8962577846
H        1.4534429165    0.3914977945   -1.6255075907
H        2.6147107592   -1.7563573879   -1.0292608726
H        2.1015299033   -1.5940885934    0.6429827339
H        3.0414267947    0.1145641779    1.9923660053
18   
torsion grid (-75,)
C        5.5926817925    1.0258643222   -0.5818752705
C        4.4883307160    0.1857732956   -0.9101692079
C        5.7859545876    1.4975403224    0.6895512757
C        3.6011632592   -0.1601685906    0.0781242256
C        4.8694081434    1.1586492992    1.7606106232
C        1.2403777560   -0.1721486017   -0.8413792344
C        2.3563900091   -0.9804635211   -0.1545111941
N        3.8092771414    0.3232002892    1.3424048263
O        4.9340568713    1.5178228647    2.9399098037
H        6.2977485917    1.2966276161   -1.3649203111
H        4.3425584126   -0.1837195853   -1.9192489127
H        6.6226822379    2.1365680547    0.9501694169
H        0.9532625794    0.6949353363   -0.2381265222
H        0.3524341550   -0.7948804541   -0.9903740789
H        1.5705842880    0.1938710299   -1.8175249076
H        2.6151063350   -1.8433215981   -0.7766130398
H        1.9940774808   -1.3820365110    0.7986160642
H        3.1623532914    0.0795404414    2.0868181736
18   
torsion grid (-60,)
C        5.5335528116    1.0815654890   -0.5623319677
C        4.3900432882    0.2932214106   -0.8832816715
C        5.8202236063    1.4454671576    0.7268869558
C        3.5584042377   -0.1139816650    0.1302421800
C        4.9657926605    1.0395678265    1.8248815133
C        1.2731951041   -0.2437181367   -0.9808772900
C        2.3071900701   -0.9357109408   -0.0771969589
N        3.8603358523    0.2613991486    1.4118723635
O        5.1125756024    1.3016948212    3.0222743897
H        6.1934114724    1.4004818982   -1.3663671028
H        4.1743317760    0.0099241312   -1.9072477715
H        6.6870321553    2.0456873722    0.9813572538
H        0.9703575752    0.7207114524   -0.5617631127
H        0.3807200422   -0.8685966652   -1.0869500893
H        1.6788566706   -0.0619434893   -1.9798710254
H        2.5874654884   -1.9001713810   -0.5155276139
H        1.8533643285   -1.1602300785    0.8944123638
H        3.2574172203   -0.0287632262    2.1761628134
18   
torsion grid (-45,)
C        5.4674625097    1.1770085046   -0.5742602200
C        4.2871929612    0.4361253778   -0.8779484860
C        5.8396912686    1.4460119350    0.7158277818
C        3.5053783951   -0.0196159113    0.1540315690
C        5.0404443194    0.9850187155    1.8338622591
C        1.3069674266   -0.3419183455   -1.1123973642
C        2.2522175010   -0.8487913614   -0.0143894343
N        3.8945570917    0.2595059589    1.4376630056
O        5.2625995590    1.1649901651    3.0347262629
H        6.0858251998    1.5359878303   -1.3942507254
H        4.0079709918    0.2305901391   -1.9042613547
H        6.7340131854    2.0104745129    0.9566155045
H        0.9999231346    0.6900930421   -0.9185786858
H        0.4092212040   -0.9662852443   -1.1555623757
H        1.7789848149   -0.3733472437   -2.0982240063
H        2.5439474733   -1.8847786690   -0.2265998149
H        1.7127335479   -0.8741674883    0.9395230753
H        3.3285398228   -0.0654257823    2.2161200745
18   
torsion grid (-30,)
C        5.4043412836    1.2744012577   -0.5500317355
C        4.1992389620    0.5692045403   -0.8466672335
C        5.8374365556    1.4553983004    0.7356038539
C        3.4553279732    0.0622446705    0.1883317775
C        5.0800875454    0.9352951769    1.8579386580
C        1.3611906014   -0.4390854522   -1.2062684641
C        2.1928514910   -0.7554423212    0.0413229563
N        3.9062039646    0.2540832578    1.4691807103
O        5.3596967296    1.0366038467    3.0559287162
H        5.9912623488    1.6765485954   -1.3731088205
H        3.8728226777    0.4361234780   -1.8702980204
H        6.7505436549    1.9912970038    0.9711374765
H        1.0840537120    0.6187654733   -1.2367725299
H        0.4432165588   -1.0343255430   -1.2054678719
H        1.9032066833   -0.6752068161   -2.1264488899
H        2.4666407472   -1.8185659420    0.0463167328
H        1.5724830870   -0.5989803947    0.9326379347
H        3.3682419410   -0.1104220327    2.2502086649
18   
torsion grid (-15,)
C        5.3673694023    1.3485316823   -0.5516266439
C        4.1384610331    0.6744820497   -0.8265499797
C        5.8680744874    1.4460015419    0.7178212717
C        3.4425165188    0.1134290187    0.2129407139
C        5.1624427598    0.8648396023    1.8447817726
C        1.4239230463   -0.5215712093   -1.2420819818
C        2.1538562953   -0.6655096226    0.0955401831
N        3.9603111226    0.2230760609    1.4790317833
O        5.5086287078    0.8873353383    3.0293029532
H        5.9161688693    1.7942897099   -1.3785466243
H        3.7584455639    0.6081056800   -1.8377614273
H        6.7998457303    1.9558613716    0.9375990504
H        1.1918614770    0.5258578251   -1.4567146234
H        0.4832067611   -1.0791468422   -1.2160120454
H        2.0180776729   -0.9172305169   -2.0711937614
H        2.3746571429   -1.7245796931    0.2844718835
H        1.4857982453   -0.3476461596    0.9067980633
H        3.4597817720   -0.1861403647    2.2630100067
18   
torsion grid (0,)
C        5.3251395845    1.4031874013   -0.5382856631
C        4.0785179183    0.7599057722   -0.8091571313
C        5.8721692236    1.4179845085    0.7153464898
C        3.4155077161    0.1413944891    0.2187671084
C        5.2014066282    0.7751237816    1.8304106320
C        1.4708123859   -0.6080439991   -1.2829188147
C        2.0948174703   -0.5832053204    0.1136936603
N        3.9810396448    0.1671175129    1.4693282449
O        5.5915389708    0.7211771284    3.0001791244
H        5.8492877068    1.8932567918   -1.3560659381
H        3.6620819281    0.7593783572   -1.8080205409
H        6.8177498115    1.9034482421    0.9313153833
H        1.2669666778    0.4029625987   -1.6483172929
H        0.5219893122   -1.1516456812   -1.2579648866
H        2.1236563424   -1.1082542558   -2.0045476594
H        2.2405398512   -1.6127221243    0.4672789239
H        1.3929035301   -0.1191736290    0.8195495738
H        3.5040231247   -0.2849437826    2.2444264144
18   
torsion grid (15,)
C        5.2998757913    1.4674072469   -0.5236343389
C        4.0366768605    0.8538041936   -0.7843378523
C        5.8932043564    1.4014683321    0.7073453357
C        3.4055652860    0.1784524729    0.2282103498
C        5.2573114699    0.6974074459    1.8053684053
C        1.5248728969   -0.6995788928   -1.2841234655
C        2.0547119127   -0.4908604892    0.1365989900
N        4.0174810313    0.1221305865    1.4552093630
O        5.6901333637    0.5671880258    2.9539123036
H        5.7989040831    2.0009470741   -1.3298506790
H        3.5833360251    0.9167056842   -1.7650984270
H        6.8521640418    1.8633913212    0.9158599849
H        1.3548879156    0.2523574521   -1.7959025098
H        0.5693191918   -1.2309935602   -1.2519742407
H        2.2222860262   -1.2911643006   -1.8846776279
H        2.1181851157   -1.4624381089    0.6440405909
H        1.3365383836    0.1051149621    0.7154872827
H        3.5657823651   -0.3732085517    2.2188956248
18   
torsion grid (30,)
C        5.2822229475    1.5096607455   -0.4984806040
C        3.9958669257    0.9468506186   -0.7556943048
C        5.9221260341    1.3286412551    0.6977580893
C        3.3883402661    0.2022902023    0.2230726583
C        5.3137632640    0.5492055576    1.7590099521
C        1.5697030333   -0.7920704014   -1.2878462060
C        2.0093566737   -0.4086819460    0.1291434599
N        4.0462603022    0.0317931362    1.4140911824
O        5.7875643023    0.3121454386    2.8738776584
H        5.7617726972    2.0981860272   -1.2778165251
H        3.5045008235    1.1008266822   -1.7080522558
H        6.8999453784    1.7506690080    0.9031684950
H        1.4842849995    0.0836815282   -1.9375243387
H        0.5881342780   -1.2743682900   -1.2579304054
H        2.2795940660   -1.4871890659   -1.7457479034
H        1.9812165219   -1.3015584787    0.7661107507
H        1.2885379200    0.2959406407    0.5640603345
H        3.6143551338   -0.5170947617    2.1519704877
18   
torsion grid (45,)
C        5.2520986458    1.5823275347   -0.5029638674
C        3.9407582681    1.0738382687   -0.7396458840
C        5.9464062456    1.2862348773    0.6396447105
C        3.3611047110    0.2661124241    0.2066191417
C        5.3707379433    0.4361338287    1.6629991505
C        1.6256391865   -0.9026251676   -1.2640202085
C        1.9668856569   -0.3111732184    0.1106465520
N        4.0721792379   -0.0192704750    1.3423875698
O        5.8910039635    0.0935654049    2.7287434792
H        5.7087776951    2.2230444376   -1.2543343605
H        3.4042987479    1.3194483410   -1.6481704197
H        6.9445918427    1.6666123355    0.8276326763
H        1.6521001479   -0.1420277396   -2.0491674955
H        0.6182942993   -1.3301126217   -1.2515900951
H        2.3319065618   -1.6925587937   -1.5361764767
H        1.8515991044   -1.0889067485    0.8744980865
H        1.2445885197    0.4744098461    0.3647125639
H        3.6620292802   -0.6156904669    2.0551268353
18   
torsion grid (60,)
C        5.7979166490    0.1044678631    0.4290294924
C        4.6126508685   -0.4263450769   -0.1587092786
C        5.8453989105    1.3770920379    0.9338887614
C        3.4917850550    0.3637790794   -0.2224706081
C        4.6832371870    2.2418282707    0.8895540460
C        1.5728840022   -1.3004759780   -0.0765385513
C        2.1702099720   -0.0837940048   -0.8029084216
N        3.5580911924    1.6320043840    0.2892646415
O        4.5971093254    3.3998921623    1.3084619870
H        6.6862446232   -0.5218599019    0.4757048274
H        4.5876337725   -1.4344385171   -0.5567422952
H        6.7418624075    1.7898550197    1.3837282376
H        2.2362662583   -2.1670587587   -0.1440726021
H        0.6111064534   -1.5755333121   -0.5210189917
H        1.4125696445   -1.0832281056    0.9839203289
H        1.4581513713    0.7483112402   -0.7717926376
H        2.3138315034   -0.3257391650   -1.8620101316
H        2.7397870001    2.2327108542    0.2521900204
18   
torsion grid (75,)
C        5.8365795214    0.1428130915    0.3396637066
C        4.6813450980   -0.3949907716   -0.3001616015
C        5.8166735046    1.3689618756    0.9499835170
C        3.5227519656    0.3405896397   -0.3057375365
C        4.6120016792    2.1754905679    0.9692290148
C        1.5256612810   -1.1840681519    0.0189506509
C        2.2166822406   -0.1456383634   -0.8838277506
N        3.5209946051    1.5620812199    0.3133594399
O        4.4683584515    3.2903897655    1.4794234802
H        6.7556163211   -0.4393943488    0.3405293982
H        4.7054958992   -1.3664104848   -0.7815894540
H        6.6897956245    1.7881241392    1.4381970777
H        2.1595561319   -2.0649391725    0.1537440670
H        0.5782268583   -1.5071867203   -0.4242138051
H        1.3161548478   -0.7675019735    1.0092599002
H        1.5477444704    0.7055189123   -1.0545221363
H        2.4102926295   -0.5901772725   -1.8652709163
H        2.6733631473    2.1220114797    0.3184547656
18   
torsion grid (90,)
C        5.8838100321    0.1873244357    0.2544962012
C        4.7495863147   -0.3689128710   -0.4089244573
C        5.8024520152    1.3650622735    0.9480877079
C        3.5521979892    0.2978428793   -0.3498634016
C        4.5551306286    2.1006647674    1.0355790527
C        1.4640312763   -1.0653377777    0.0790861321
C        2.2622020060   -0.2197332061   -0.9313198178
N        3.4915343943    1.4747822998    0.3495224580
O        4.3590004407    3.1669323676    1.6255979478
H        6.8339154821   -0.3403625010    0.2048412915
H        4.8200118373   -1.3018645601   -0.9569489231
H        6.6572265981    1.7986461243    1.4557874256
H        2.0466736527   -1.9340661180    0.3983700496
H        0.5317938970   -1.4209359838   -0.3710533028
H        1.2101457403   -0.4858744757    0.9726370272
H        1.6514776873    0.6202664263   -1.2830532628
H        2.4948394948   -0.8277251818   -1.8107195193
H        2.6134048821    1.9829596634    0.4038495632
18   
torsion grid (105,)
C        5.9363537202    0.2451242505    0.2073859036
C        4.8155182708   -0.3367842788   -0.4586274110
C        5.8097672604    1.3719381164    0.9739611926
C        3.5846190947    0.2521562272   -0.3234068959
C        4.5249565472    2.0257415824    1.1407177167
C        1.3931254618   -0.9531753499    0.1040014939
C        2.3144302304   -0.2812954126   -0.9315069560
N        3.4783109914    1.3807310255    0.4476687013
O        4.2885175817    3.0426986509    1.7989088925
H        6.9130201143   -0.2216978294    0.0989950118
H        4.9222113346   -1.2299371743   -1.0637696563
H        6.6535463505    1.8251434666    1.4829529282
H        1.9045645626   -1.7868020852    0.5943312236
H        0.4912242350   -1.3390996013   -0.3810776920
H        1.0800696955   -0.2495192101    0.8821834436
H        1.7772286080    0.5368547150   -1.4281692542
H        2.5805294357   -1.0006868802   -1.7104227157
H        2.5755085124    1.8340634152    0.5556018019
18   
torsion grid (120,)
C        5.9689256253    0.3182316803    0.1383488044
C        4.8606231138   -0.3066329678   -0.5098955703
C        5.8034152976    1.4003301248    0.9595933857
C        3.6008401542    0.1925355189   -0.2999658377
C        4.4872154645    1.9606290254    1.2039940129
C        1.3122491496   -0.8608232901    0.0983588614
C        2.3501997258   -0.3682550561   -0.9257317646
N        3.4557778002    1.2798523704    0.5224265872
O        4.2135235452    2.9299236317    1.9173555802
H        6.9676933331   -0.0794882063   -0.0284723481
H        4.9995827739   -1.1642222655   -1.1582103467
H        6.6367485831    1.8845593939    1.4571199890
H        1.7374100073   -1.6362635039    0.7426704810
H        0.4420964758   -1.2797247487   -0.4159988052
H        0.9533871425   -0.0516995234    0.7429216603
H        1.8959244270    0.4005434280   -1.5648566697
H        2.6398795333   -1.1908097426   -1.5846132680
H        2.5321392860    1.6682718564    0.6885994447
18   
torsion grid (135,)
C        6.0013353693    0.3878577697    0.0627037953
C        4.9029161577   -0.2789266673   -0.5587654614
C        5.8122006077    1.4272212120    0.9330903389
C        3.6262309129    0.1339488017   -0.2735359814
C        4.4784211531    1.8956968967    1.2584295042
C        1.2445862442   -0.7586763613    0.0723199824
C        2.3904827219   -0.4560408351   -0.9072294009
N        3.4576800177    1.1787277061    0.5966910630
O        4.1796018254    2.8179420820    2.0224279276
H        7.0126653367    0.0570363232   -0.1639120696
H        5.0620167575   -1.1017371792   -1.2464242777
H        6.6383184772    1.9409867929    1.4126899423
H        1.5751471450   -1.4261847708    0.8740075869
H        0.4175569887   -1.2419630440   -0.4560067138
H        0.8405185277    0.1478791061    0.5350264659
H        2.0304467139    0.2375471525   -1.6791117976
H        2.6855474420   -1.3711136160   -1.4270621520
H        2.5229228341    1.5026604242    0.8243806971
18   
torsion grid (150,)
C        6.0134175857    0.4523209680   -0.0102978044
C        4.9215433913   -0.2436752522   -0.6079746822
C        5.8166576451    1.4349808074    0.9230733529
C        3.6404214295    0.0826086426   -0.2384551624
C        4.4796683497    1.8060116466    1.3425199858
C        1.1839509497   -0.6484626180    0.0545670077
C        2.4117052734   -0.5407969000   -0.8609884516
N        3.4633007422    1.0704472323    0.6922483703
O        4.1705144557    2.6638479907    2.1747110634
H        7.0273466969    0.1904756966   -0.3052700561
H        5.0875073984   -1.0215156709   -1.3449432205
H        6.6389374717    1.9682933635    1.3876642736
H        1.4169261858   -1.1863596057    0.9789374745
H        0.3832542825   -1.1887201594   -0.4585719744
H        0.7763561719    0.3321965717    0.3232911225
H        2.1434467076    0.0469992338   -1.7489182570
H        2.6917046040   -1.5329280483   -1.2256742709
H        2.5274524693    1.3208258263    0.9947462786
18   
torsion grid (165,)
C        6.0144295683    0.4940203228   -0.0993153016
C        4.9243427705   -0.2203548464   -0.6748610729
C        5.8270470342    1.4170724134    0.8960647249
C        3.6519864017    0.0265776344   -0.2202040944
C        4.5020002894    1.7025905649    1.4062999529
C        1.1396728457   -0.5411329328    0.0268698090
C        2.4241560935   -0.6423037043   -0.8041580842
N        3.4847006951    0.9530637729    0.7713186588
O        4.1992308497    2.4994871894    2.2996358326
H        7.0210179651    0.2963962517   -0.4617917478
H        5.0828082519   -0.9506783055   -1.4608670982
H        6.6502091633    1.9633817206    1.3435696035
H        1.2737382516   -0.9457747748    1.0355853975
H        0.3404773007   -1.1112922516   -0.4548662363
H        0.7821851911    0.4909223077    0.1126896788
H        2.2424534512   -0.2073532322   -1.7948862408
H        2.6701764580   -1.6944432626   -0.9776607922
H        2.5571563927    1.1451474432    1.1355627104
18   
torsion grid (180,)
C        6.0020856685    0.6005933692   -0.1382602519
C        4.9267573003   -0.1371888744   -0.7103279795
C        5.8104552543    1.4581153290    0.9138883341
C        3.6637122225    0.0162879581   -0.1917192842
C        4.4952983765    1.6481713934    1.4884004266
C        1.1186595573   -0.4440536060   -0.0441603780
C        2.4573977782   -0.7266747557   -0.7337208244
N        3.4925049371    0.8750786415    0.8574398580
O        4.1873730626    2.3854155326    2.4300831005
H        7.0011140279    0.4770401850   -0.5510066705
H        5.0882900674   -0.8133779176   -1.5429366309
H        6.6227796806    2.0245030061    1.3561693182
H        1.1353122244   -0.7211646874    1.0155500922
H        0.3271365368   -1.0312238396   -0.5178959677
H        0.8296641400    0.6096385635   -0.1234991182
H        2.3720826958   -0.4920181490   -1.8005930519
H        2.6736227722   -1.7994377946   -0.6789042249
H        2.5703553582    1.0086515158    1.2596112257
