27   
torsion grid (-165,)
C        1.1267342418    0.9457083731    0.3175079640
C       -0.0570716968    0.0313407010    0.7155044687
C        0.5193894026   -0.9583853878    1.7602713603
C       -1.1281893913    0.9564553368    1.3413253600
C       -0.6484105198   -0.7213450320   -0.5077307993
C       -0.1014597973   -0.3193612633   -1.8653271304
C       -1.6190723955   -1.6614423830   -0.4344495677
C       -2.1334015670   -2.3899726554   -1.6724587071
C       -2.3487782727   -2.1201012826    0.8123616954
H        0.8222915510    1.7692892992   -0.3348492538
H        1.9278297676    0.3920333004   -0.1802650291
H        1.5530086120    1.3912035090    1.2232701425
H       -0.1187603578   -1.8215710275    1.9428964353
H        1.4777887708   -1.3536494359    1.4047732015
H        0.7042586081   -0.4501363941    2.7139759272
H       -1.9802018932    0.4094358991    1.7479099886
H       -1.5148327446    1.6514116680    0.5877772505
H       -0.6921402200    1.5500920418    2.1540460952
H        0.9580093456   -0.5793850566   -1.9766115779
H       -0.1722390149    0.7638698842   -2.0127449322
H       -0.6401579706   -0.7853142687   -2.6889995716
H       -1.3269976596   -2.7699102808   -2.3062595745
H       -2.7670272375   -1.7447820095   -2.2944901912
H       -2.7451503527   -3.2495047738   -1.3816253781
H       -3.4317795661   -2.0511487738    0.6445328446
H       -2.1235613152   -1.5593022375    1.7149708838
H       -2.1357593795   -3.1789441232    1.0132018736
27   
torsion grid (-150,)
C        1.2236096917    1.0873848190    0.2896608298
C        0.0212982211    0.1908009998    0.6710272401
C        0.5594473857   -0.7982766590    1.7453425633
C       -1.0568815036    1.1343798003    1.2578575820
C       -0.5602556905   -0.5563462030   -0.5593840855
C       -0.0319977884   -0.1225318360   -1.9138474438
C       -1.5260596585   -1.5012357923   -0.4889497243
C       -2.0508244414   -2.2197056977   -1.7275025763
C       -2.2442896713   -1.9659307766    0.7624900679
H        0.9437840563    1.9120909142   -0.3722894257
H        2.0247191814    0.5179545023   -0.1904296206
H        1.6399365705    1.5302917002    1.2014603341
H        0.0545164006   -1.7626574329    1.7394441836
H        1.6177608505   -1.0112418081    1.5582451957
H        0.4863600515   -0.3675415617    2.7505215329
H       -1.9237832280    0.5969220193    1.6462775831
H       -1.4175044007    1.8239836953    0.4866274890
H       -0.6374859327    1.7333005727    2.0754844633
H        1.0340393309   -0.3481486440   -2.0343429499
H       -0.1366881644    0.9604934371   -2.0453565325
H       -0.5621719582   -0.5926046829   -2.7408285588
H       -1.2515849593   -2.5652558369   -2.3890267238
H       -2.7177899230   -1.5799616515   -2.3199391053
H       -2.6318033269   -3.1010261661   -1.4382682665
H       -3.3286601936   -1.8943922352    0.6044005694
H       -2.0087374923   -1.4091500031    1.6654077123
H       -2.0318673427   -3.0260693705    0.9574072617
27   
torsion grid (-135,)
C        1.1256979497    1.1148862760   -0.0242973188
C       -0.0490013481    0.2749220124    0.5314805792
C        0.5425448426   -0.5788100599    1.6983353791
C       -1.0979280539    1.2883590223    1.0538768002
C       -0.7066416234   -0.6048871906   -0.5637506516
C       -0.3110063217   -0.2945647342   -1.9942967791
C       -1.6420259310   -1.5487524648   -0.3119826741
C       -2.2646021512   -2.3947110409   -1.4168877986
C       -2.2311671676   -1.8834966941    1.0437909224
H        0.8107605491    1.8325742225   -0.7872084109
H        1.9127117001    0.4846965321   -0.4502047179
H        1.5732392599    1.6868990179    0.7959338830
H        0.2197465750   -1.6187104182    1.6696225478
H        1.6360944010   -0.5912248264    1.6469267739
H        0.2707865635   -0.1649446369    2.6758873692
H       -1.9490039511    0.7993464573    1.5322226848
H       -1.4884432729    1.8924005507    0.2272971405
H       -0.6439990903    1.9698672609    1.7836768521
H        0.7558754413   -0.4670299770   -2.1759728211
H       -0.4997329318    0.7596795248   -2.2302934847
H       -0.8681186982   -0.8845010241   -2.7207820941
H       -1.5228607928   -2.7996664051   -2.1109926642
H       -2.9936174064   -1.8245790229   -2.0072354009
H       -2.8011040225   -3.2465805810   -0.9874059194
H       -3.3265807630   -1.8317686033    0.9849326387
H       -1.9156029674   -1.2342585664    1.8563337957
H       -1.9872647757   -2.9165737682    1.3270530503
27   
torsion grid (-120,)
C        1.2274447856    1.0301451840    0.1105518591
C       -0.0151371600    0.2338193124    0.5771435519
C        0.4637797228   -0.6779364571    1.7535072950
C       -1.0436541020    1.2793929953    1.0762363095
C       -0.6559507801   -0.5730587653   -0.5811643389
C       -0.2450464400   -0.1567157909   -1.9801936088
C       -1.5938954490   -1.5310113575   -0.4048342042
C       -2.1959489976   -2.3164890231   -1.5625812698
C       -2.2118972696   -1.9350501419    0.9185340244
H        0.9960354425    1.7639650360   -0.6661488847
H        2.0143732889    0.3688042839   -0.2675006699
H        1.6408863941    1.5783525922    0.9637373118
H        0.3157453980   -1.7376334430    1.5426220842
H        1.5296303494   -0.5296936403    1.9520346532
H       -0.0676963855   -0.4527216440    2.6842625410
H       -1.9487383151    0.8092796422    1.4684513481
H       -1.3449901625    1.9431025937    0.2580017444
H       -0.6099617195    1.8996969284    1.8701464127
H        0.8229122632   -0.3172853029   -2.1662493386
H       -0.4301752395    0.9135105897   -2.1334583300
H       -0.7996644271   -0.6841093655   -2.7550695516
H       -1.4624407437   -2.5891246171   -2.3250857831
H       -3.0001284010   -1.7566826641   -2.0587297931
H       -2.6396773697   -3.2480326780   -1.1960306855
H       -3.3055865399   -1.9302101478    0.8209529561
H       -1.9551217587   -1.2933857201    1.7573219182
H       -1.9312602355   -2.9632833719    1.1844851896
27   
torsion grid (-105,)
C        1.2080806145    0.9664665555    0.1677758918
C       -0.0651668870    0.2401296317    0.6673307190
C        0.3770622554   -0.6139689785    1.8953885048
C       -1.0644932512    1.3374897969    1.1073052393
C       -0.7174532187   -0.6061209443   -0.4561074014
C       -0.3447802471   -0.2046191940   -1.8710694681
C       -1.6271842858   -1.5839012110   -0.2439182444
C       -2.2118469362   -2.4286691715   -1.3668609139
C       -2.2282352461   -1.9617877867    1.0950647304
H        1.0130747933    1.6479581892   -0.6638816051
H        1.9796938296    0.2554386185   -0.1477213354
H        1.6243120834    1.5632619599    0.9859391679
H        0.4419790789   -1.6757484297    1.6473254529
H        1.3574044155   -0.2911216468    2.2589114326
H       -0.3165620429   -0.5205951480    2.7357822537
H       -1.9903019003    0.9074708254    1.4990334233
H       -1.3306369343    1.9817296170    0.2617480919
H       -0.6253803260    1.9713122674    1.8875190905
H        0.7144773298   -0.3792057530   -2.0918952326
H       -0.5226733037    0.8668101290   -2.0231822696
H       -0.9326283208   -0.7270003339   -2.6244308815
H       -1.5088174018   -2.6199749828   -2.1798637169
H       -3.1074733687   -1.9618472787   -1.7993814965
H       -2.5241480650   -3.4032710362   -0.9758597581
H       -3.3118216650   -2.0900222263    0.9771770882
H       -2.0713235417   -1.2295000450    1.8826248394
H       -1.8393198488   -2.9260893458    1.4488979293
27   
torsion grid (-90,)
C        1.2029142355    0.9460402676    0.1942732439
C       -0.0830208494    0.2745889548    0.7378057488
C        0.3587986036   -0.5239999261    1.9951250330
C       -1.0555323489    1.4081980079    1.1402543539
C       -0.7546901078   -0.6143763300   -0.3408560227
C       -0.4097991520   -0.2562247052   -1.7752702160
C       -1.6481622700   -1.5960127374   -0.0804188203
C       -2.2188090792   -2.5071301982   -1.1562735067
C       -2.2371608991   -1.9239383691    1.2788872930
H        1.0189021118    1.5860429337   -0.6717037333
H        1.9564733004    0.2016980670   -0.0864742172
H        1.6374926555    1.5766425623    0.9766186606
H        0.6516365418   -1.5445575233    1.7316286848
H        1.2125111593   -0.0351887942    2.4754595594
H       -0.4276313924   -0.5962797966    2.7484996426
H       -1.9875676075    1.0131061210    1.5538077835
H       -1.3138362195    2.0258361246    0.2727682251
H       -0.5987497216    2.0617357390    1.8936360476
H        0.6390883637   -0.4588387662   -2.0208924175
H       -0.5694905870    0.8147994168   -1.9472819522
H       -1.0300146110   -0.7812109132   -2.5002252107
H       -1.5581533793   -2.6461219657   -2.0132312246
H       -3.1837272313   -2.1353725018   -1.5282986214
H       -2.4097501864   -3.5002194742   -0.7333406671
H       -3.2843659052   -2.2237508538    1.1525650166
H       -2.2236040496   -1.0923938278    1.9801046962
H       -1.7239958697   -2.7721543451    1.7505294239
27   
torsion grid (-75,)
C        1.1816641038    0.9933714443    0.1891589495
C       -0.0755087315    0.3046243467    0.7763812805
C        0.4289818341   -0.4793600570    2.0128507544
C       -1.0505240165    1.4253424464    1.2058656200
C       -0.7622894274   -0.6120185012   -0.2710388538
C       -0.4105657847   -0.3142277847   -1.7178643774
C       -1.6679041183   -1.5740371146    0.0211857244
C       -2.2417691865   -2.5169278944   -1.0261122673
C       -2.2717670441   -1.8525222015    1.3854762129
H        0.9574906804    1.6338408825   -0.6671035714
H        1.9354480077    0.2615736486   -0.1208214504
H        1.6359431324    1.6277404783    0.9572934627
H        0.9684727107   -1.3803639796    1.7025978896
H        1.1154253873    0.1446998293    2.5958983833
H       -0.3694376197   -0.7896941761    2.6858731459
H       -1.9582172816    1.0257641705    1.6651947257
H       -1.3552061032    2.0246341425    0.3405958908
H       -0.5728790024    2.0981149620    1.9287251624
H        0.6386297702   -0.5290841200   -1.9512261201
H       -0.5666469557    0.7491060955   -1.9342963901
H       -1.0290270033   -0.8665055360   -2.4235899018
H       -1.5714352135   -2.7041309191   -1.8662348814
H       -3.1932092366   -2.1417838830   -1.4282113821
H       -2.4589526581   -3.4879756311   -0.5664966535
H       -3.3217736312   -2.1426357822    1.2589759025
H       -2.2550216153   -1.0014686770    2.0630367528
H       -1.7733859586   -2.6940454350    1.8843071136
27   
torsion grid (-60,)
C        1.0074730039    1.0868159921    0.1817878293
C       -0.1634842428    0.3343103866    0.8604290670
C        0.4737311521   -0.4141906744    2.0551591318
C       -1.1598225084    1.4137063757    1.3449994562
C       -0.8677833472   -0.6445330953   -0.1183087837
C       -0.5005638476   -0.4867787837   -1.5830106777
C       -1.7916356381   -1.5651459356    0.2430726943
C       -2.3947964427   -2.5494739936   -0.7523217334
C       -2.3910461993   -1.7573757028    1.6225418323
H        0.6794246756    1.7285315199   -0.6402352455
H        1.7679042797    0.4003812056   -0.2032156512
H        1.4943983062    1.7319695681    0.9208804629
H        1.2400042285   -1.1105334840    1.6974950652
H        0.9634005919    0.3020531430    2.7259941245
H       -0.2389788801   -0.9850305662    2.6481035275
H       -2.0004977434    0.9932600480    1.9002579044
H       -1.5726946417    1.9614788033    0.4906070323
H       -0.6550996849    2.1379043233    1.9960909037
H        0.5491419528   -0.7334230023   -1.7806781744
H       -0.6420468854    0.5508266519   -1.9059280743
H       -1.1137293477   -1.1029713889   -2.2386732610
H       -1.6702775005   -2.9302010562   -1.4757280331
H       -3.2257835835   -2.1023126790   -1.3144772525
H       -2.8037183979   -3.4158060835   -0.2219365935
H       -3.4790440026   -1.8669383454    1.5278144508
H       -2.2095399837   -0.9436281559    2.3194779109
H       -2.0262162754   -2.6855966160    2.0828639917
27   
torsion grid (-45,)
C        0.6891924573    0.4326154693    0.5119235697
C       -0.4430923580   -0.2867304133    1.2840944796
C        0.2558513776   -0.9933819639    2.4737670558
C       -1.4097438692    0.8191489489    1.7706390013
C       -1.2026641775   -1.3033334538    0.3881653954
C       -0.8527619062   -1.2804508759   -1.0886440586
C       -2.1568716444   -2.1541078063    0.8319310690
C       -2.8389718428   -3.1579060425   -0.0924440473
C       -2.7111230445   -2.2440861641    2.2398554291
H        0.3119115013    1.0703575789   -0.2926196982
H        1.4083397855   -0.2710012375    0.0830386284
H        1.2391804613    1.0783787759    1.2055308157
H        1.1649165812   -1.4985102045    2.1297064221
H        0.5680274652   -0.2509747505    3.2190574095
H       -0.3652633349   -1.7318670350    2.9772669882
H       -2.2070167694    0.4373696662    2.4104342149
H       -1.8844478643    1.3104175488    0.9141245672
H       -0.8626623889    1.5833323858    2.3361205800
H        0.1795024941   -1.6002853130   -1.2742936731
H       -0.9420168090   -0.2676537440   -1.4967941030
H       -1.5046661544   -1.9179701848   -1.6839242897
H       -2.1314199019   -3.7042470382   -0.7223335030
H       -3.5682037964   -2.6746168712   -0.7555161575
H       -3.3879394045   -3.9017840430    0.4932951598
H       -3.8074767476   -2.1982179919    2.2003756966
H       -2.3784781231   -1.4650055710    2.9199320223
H       -2.4600895989   -3.2138647932    2.6908690150
27   
torsion grid (-30,)
C        0.7295341768    0.5108537368    0.4073145609
C       -0.4211711403   -0.1815697168    1.1761002616
C        0.2466176058   -0.8629163793    2.4059390259
C       -1.3945003197    0.9420394067    1.6083313490
C       -1.1775105282   -1.2076987954    0.2895416691
C       -0.8312531672   -1.1969508750   -1.1875104761
C       -2.1397924349   -2.0426301022    0.7448607802
C       -2.8408204419   -3.0456262343   -0.1654629859
C       -2.6858469810   -2.1051623135    2.1575345886
H        0.3726375095    1.1322476936   -0.4191674432
H        1.4498786990   -0.2097059032    0.0093558432
H        1.2723325402    1.1679926722    1.0961306191
H        1.2756475872   -1.1516973589    2.1676283490
H        0.3073131965   -0.1599555027    3.2459560132
H       -0.2733878477   -1.7543079824    2.7511747707
H       -2.2066904006    0.5788699810    2.2405272254
H       -1.8488017547    1.4092038212    0.7275573323
H       -0.8577141670    1.7209384934    2.1635288719
H        0.2059550813   -1.5004823822   -1.3715531621
H       -0.9390680933   -0.1902357260   -1.6072689143
H       -1.4733570955   -1.8529735462   -1.7734259714
H       -2.1431300982   -3.6149165990   -0.7861935011
H       -3.5587477710   -2.5574433111   -0.8371149452
H       -3.4055749587   -3.7699220596    0.4297169416
H       -3.7801251508   -2.0182767756    2.1266325924
H       -2.3168475299   -1.3366333881    2.8313260301
H       -2.4681983178   -3.0816989743    2.6114383864
27   
torsion grid (-15,)
C        0.6842856723    0.6644888693    0.0717371135
C       -0.4129594307    0.0424634758    0.9681248365
C        0.3191657492   -0.4972822314    2.2383641221
C       -1.3841416494    1.1946920683    1.3277822573
C       -1.2070842756   -1.0683782988    0.2323126102
C       -0.9971206199   -1.1558377977   -1.2668590186
C       -2.1046806243   -1.8797920409    0.8365424368
C       -2.8654332111   -2.9618231686    0.0786157751
C       -2.5161869180   -1.8277534314    2.2943484976
H        0.2774282733    1.1672537484   -0.8102808060
H        1.4098044928   -0.0831999679   -0.2637632203
H        1.2329811925    1.4155886774    0.6505635515
H        1.3990761772   -0.5487402912    2.0666522156
H        0.1642615404    0.1637001301    3.0987619183
H       -0.0036895214   -1.4978759392    2.5227214400
H       -2.1695812317    0.8786754583    2.0173724989
H       -1.8739307261    1.5758068174    0.4247464829
H       -0.8394939482    2.0260865388    1.7917302138
H        0.0376187473   -1.4065286707   -1.5265436970
H       -1.2133793877   -0.1937262087   -1.7468128309
H       -1.6431519200   -1.8951456270   -1.7382979362
H       -2.2198240172   -3.5593185276   -0.5710861445
H       -3.6636535249   -2.5397892215   -0.5457023916
H       -3.3433064668   -3.6531193775    0.7798519779
H       -3.6100604205   -1.7548174476    2.3590487735
H       -2.0984872553   -1.0001149640    2.8617004193
H       -2.2395582114   -2.7587480701    2.8078684109
27   
torsion grid (0,)
C        0.7945211598    0.6034617499    0.2049498325
C       -0.3823224856    0.0072354897    1.0144482065
C        0.2372224924   -0.5775357812    2.3253507571
C       -1.3346946954    1.1859838566    1.3367389488
C       -1.1686505494   -1.0521191624    0.2004138672
C       -0.9411476385   -1.0321631309   -1.2987073289
C       -2.0776207294   -1.8959022120    0.7392093742
C       -2.8248735060   -2.9365353884   -0.0843653867
C       -2.5210001486   -1.9148308445    2.1881534269
H        0.4697847814    1.1126838130   -0.7063709875
H        1.5245175654   -0.1639505950   -0.0740463718
H        1.3147929629    1.3424893014    0.8233865390
H        1.3206694076   -0.4231065264    2.3426084342
H       -0.1738225291   -0.1054273946    3.2233236178
H        0.0760048026   -1.6531215945    2.4105166083
H       -2.1848694399    0.8705924656    1.9465383535
H       -1.7343227306    1.6210880789    0.4138104934
H       -0.8013300728    1.9769913371    1.8780371994
H        0.0934504123   -1.2742906590   -1.5668604644
H       -1.1424735043   -0.0334904257   -1.7052772073
H       -1.5924428938   -1.7236778644   -1.8314287596
H       -2.1979328780   -3.4221525471   -0.8358891556
H       -3.6892332750   -2.5000613660   -0.6027094608
H       -3.2136994770   -3.7253654304    0.5680574658
H       -3.6181943589   -1.9001290124    2.2284648481
H       -2.1600596323   -1.0826505768    2.7867981564
H       -2.2072178237   -2.8444451023    2.6821888079
27   
torsion grid (15,)
C        0.8768918569    0.4735588088    0.8441860699
C       -0.1870415311   -0.3304490944    1.6313756036
C        0.5430237624   -0.9038405512    2.8846376701
C       -1.2827518033    0.6750424989    2.0615568433
C       -0.8372362171   -1.4295805375    0.7522432982
C       -0.7298142917   -1.2098388952   -0.7452788740
C       -1.5365431094   -2.4801075591    1.2381348479
C       -2.1182839689   -3.5710679517    0.3511044785
C       -1.8823092240   -2.7181948872    2.6945225441
H        0.4680400326    0.9767283190   -0.0354047134
H        1.7041765563   -0.1661150038    0.5170333287
H        1.2957629463    1.2473672793    1.4957009351
H        1.5010662717   -0.3961845215    3.0350981778
H       -0.0361848674   -0.7863265114    3.8038633479
H        0.7666404761   -1.9667042360    2.7640802891
H       -2.0679393082    0.1902758860    2.6481290530
H       -1.7577268558    1.1305210202    1.1853352066
H       -0.8522582964    1.4815858656    2.6677297606
H        0.3035937674   -1.2693164023   -1.1056324196
H       -1.0959654751   -0.2109103851   -1.0112879109
H       -1.3239008087   -1.9206150954   -1.3178465401
H       -1.5219705070   -3.7742191112   -0.5402790247
H       -3.1383695502   -3.3249624391    0.0253282421
H       -2.1869172288   -4.5093433906    0.9127962496
H       -2.9320067381   -3.0301976096    2.7662950031
H       -1.7572588350   -1.8490111039    3.3349329065
H       -1.2860400617   -3.5375805541    3.1179499167
27   
torsion grid (30,)
C        0.8768961965    0.4574187455    0.8697461046
C       -0.1977265556   -0.2937690657    1.6945823957
C        0.5333307109   -0.8130495368    2.9629572697
C       -1.2786562923    0.7406856512    2.0876482080
C       -0.8548564536   -1.4277640790    0.8656000367
C       -0.7707759729   -1.2548218094   -0.6403309721
C       -1.5316882391   -2.4727645873    1.3943481000
C       -2.0853122624   -3.6145560361    0.5560358614
C       -1.8688979065   -2.6617140093    2.8616843958
H        0.4763336525    0.9191757381   -0.0355884815
H        1.6969731339   -0.2082442614    0.5779538024
H        1.3039535933    1.2592831339    1.4806174658
H        1.3533950607   -0.1371208765    3.2272109013
H       -0.1165738374   -0.8926407191    3.8352427355
H        0.9747625017   -1.7979695778    2.7816675227
H       -2.0693929084    0.2886778870    2.6928328211
H       -1.7489731278    1.1704036716    1.1960893578
H       -0.8370079621    1.5631005137    2.6637694696
H        0.2539293712   -1.3436196824   -1.0193640470
H       -1.1245990863   -0.2575680381   -0.9275178743
H       -1.3898188566   -1.9694417393   -1.1806442838
H       -1.5370508390   -3.7884330561   -0.3709216976
H       -3.1414400979   -3.4506218884    0.3002750118
H       -2.0455095087   -4.5461058727    1.1324604798
H       -2.8560683032   -3.1317560762    2.9448807658
H       -1.9058865001   -1.7349597600    3.4303232366
H       -1.1587996693   -3.3352737569    3.3588988905
27   
torsion grid (45,)
C        0.9050600785    0.4968730061    0.6949225603
C       -0.1516274174   -0.2892677192    1.5102531786
C        0.6253504248   -0.9005553375    2.7018473247
C       -1.1950770948    0.7365205333    2.0106751259
C       -0.8528291281   -1.3680260903    0.6420482476
C       -0.7440361288   -1.1609228197   -0.8582391001
C       -1.5787655994   -2.4000285546    1.1309731569
C       -2.1663804467   -3.4900885804    0.2463643239
C       -1.9483846681   -2.6281386179    2.5850544976
H        0.4764011090    1.0322739652   -0.1555455551
H        1.6971905564   -0.1600318763    0.3198242298
H        1.3765396008    1.2432920219    1.3425472350
H        1.2889599898   -0.1458998753    3.1390424386
H       -0.0162212160   -1.2689849220    3.5010386317
H        1.2493643396   -1.7344059829    2.3629576351
H       -1.9662158947    0.2704315552    2.6290851040
H       -1.6979115783    1.2189778970    1.1650544913
H       -0.7118494763    1.5210000269    2.6059504362
H        0.2826029179   -1.2683609720   -1.2268807565
H       -1.0666536975   -0.1477597569   -1.1252485948
H       -1.3746887810   -1.8446902117   -1.4241974639
H       -1.5885878337   -3.6814296155   -0.6591905300
H       -3.1973852984   -3.2552011794   -0.0527243481
H       -2.2103360480   -4.4326136088    0.8038724242
H       -2.9650677889   -3.0364099887    2.6353258292
H       -1.9349518164   -1.7284289508    3.1964168812
H       -1.2907855802   -3.3699124190    3.0571362941
27   
torsion grid (60,)
C        0.7677699725    0.4955512346    0.7003933180
C       -0.2153498859   -0.3616797504    1.5349853840
C        0.6475715835   -0.9990415966    2.6499263195
C       -1.2592393238    0.6154229208    2.1250775393
C       -0.9199681347   -1.4428316965    0.6706956344
C       -0.7443857779   -1.3024722332   -0.8308030813
C       -1.6905981669   -2.4412266425    1.1616245070
C       -2.2993778736   -3.5150764654    0.2668940068
C       -2.0969130934   -2.6490620808    2.6075042529
H        0.2676107923    1.0741585911   -0.0808758102
H        1.5458746090   -0.1131382947    0.2297444706
H        1.2686441224    1.2107368611    1.3616913584
H        1.1102998514   -0.2145765180    3.2607965344
H        0.0852646090   -1.6454188678    3.3221577403
H        1.4485353263   -1.6023794480    2.2092915209
H       -1.9695993212    0.1234507717    2.7921033215
H       -1.8364942997    1.0857320795    1.3213013490
H       -0.7620469301    1.4120617740    2.6918960924
H        0.2958656394   -1.4463379478   -1.1454964735
H       -1.0327346443   -0.2981819777   -1.1610328304
H       -1.3590113985   -2.0036844488   -1.3930233315
H       -1.6214259597   -3.8557584307   -0.5191591126
H       -3.2229997306   -3.1680347591   -0.2156025113
H       -2.5663167189   -4.3938313557    0.8630242647
H       -3.1736756996   -2.8579005428    2.6505373955
H       -1.9064118720   -1.8051534179    3.2648859466
H       -1.5948026156   -3.5289928499    3.0320602706
27   
torsion grid (75,)
C        0.8719062649    0.2669206005    0.7722314290
C       -0.1263765501   -0.6444605738    1.5266002133
C        0.7158851730   -1.3734326524    2.6054393802
C       -1.1751419256    0.2958978370    2.1667852323
C       -0.8245214858   -1.6545815870    0.5749947743
C       -0.5584313243   -1.4662274429   -0.9074259253
C       -1.6608525066   -2.6383520980    0.9800805369
C       -2.2881004413   -3.6220455376   -0.0030977491
C       -2.1220077466   -2.9138056058    2.3974734980
H        0.3793507137    0.9289794080    0.0541575162
H        1.6357229819   -0.3078432911    0.2408847249
H        1.3900187312    0.9042419937    1.4974971228
H        0.9547396563   -0.6894498843    3.4289002478
H        0.2083158420   -2.2339663692    3.0392251578
H        1.6549975761   -1.7368951076    2.1754191572
H       -1.8849038836   -0.2293844433    2.8078086052
H       -1.7527201186    0.8045754478    1.3871005127
H       -0.6798252968    1.0637757468    2.7734631636
H        0.4905274936   -1.6538725952   -1.1658987446
H       -0.7753186781   -0.4381414569   -1.2177197523
H       -1.1697365278   -2.1183680326   -1.5293155951
H       -1.5620004109   -4.0411684120   -0.7054177372
H       -3.0891394845   -3.1578716960   -0.5927528428
H       -2.7369830620   -4.4630376272    0.5344291987
H       -3.2184613912   -2.9700734979    2.4169997082
H       -1.8217823203   -2.1752351088    3.1353146456
H       -1.7579155742   -3.8935384663    2.7357588801
27   
torsion grid (90,)
C        1.2038962773    1.3004003317    0.4405467055
C        0.1498777744    0.3418089112    1.0449141447
C        0.8801745281   -0.4169615075    2.1918360816
C       -0.9883952107    1.2370925315    1.5924383665
C       -0.4262087957   -0.6332666862   -0.0171400245
C       -0.0473666201   -0.3502765042   -1.4586281673
C       -1.2694314838   -1.6528988452    0.2651708239
C       -1.7969274897   -2.5919963943   -0.8147144090
C       -1.8341236267   -2.0057901538    1.6269166429
H        0.7802693056    1.9809244019   -0.3038184114
H        2.0342451496    0.7590010422   -0.0220666276
H        1.6240687318    1.9174987716    1.2427204520
H        0.7799402686    0.1219717214    3.1413873888
H        0.4959782795   -1.4235500906    2.3502527105
H        1.9472204483   -0.5171349225    1.9692669869
H       -1.7543978505    0.6702155897    2.1245323546
H       -1.4837503032    1.7650994114    0.7701175357
H       -0.5858824497    1.9893844082    2.2816976203
H        1.0284015545   -0.4670986593   -1.6339586201
H       -0.2962891387    0.6811942928   -1.7335285523
H       -0.5662407422   -0.9982865034   -2.1634568433
H       -1.0081727577   -2.9647957200   -1.4744448306
H       -2.5538917586   -2.1078655692   -1.4450605374
H       -2.2744439541   -3.4654014142   -0.3598998410
H       -2.9289099858   -2.0619601697    1.5614879918
H       -1.5903121777   -1.3091453439    2.4244395594
H       -1.4935950437   -3.0030447279    1.9375936807
27   
torsion grid (105,)
C        1.2840000194    1.4241626675    0.4284103897
C        0.2088908811    0.4721869469    1.0049237199
C        0.8964615071   -0.3014733991    2.1755319666
C       -0.9357253703    1.3762209833    1.5273344662
C       -0.3637605207   -0.4832194875   -0.0744206579
C       -0.0226802180   -0.1443054729   -1.5124554353
C       -1.1889337576   -1.5196543450    0.1975605059
C       -1.7313898608   -2.4380469260   -0.8915306168
C       -1.7211630244   -1.9020904885    1.5641746920
H        0.8896849684    2.0935382333   -0.3414404193
H        2.1304455474    0.8747815774    0.0043599596
H        1.6739030757    2.0518378416    1.2372249116
H        0.5647562113    0.0708286714    3.1513334734
H        0.7027136082   -1.3730683297    2.1451940797
H        1.9831512360   -0.1767605643    2.1340552424
H       -1.7275695526    0.8053929651    2.0167854341
H       -1.3932144095    1.9286786144    0.6990072759
H       -0.5498328487    2.1079755544    2.2475600523
H        1.0543128631   -0.1999464697   -1.7072266743
H       -0.3293877178    0.8806573237   -1.7537479617
H       -0.5207245482   -0.7983727124   -2.2268429475
H       -0.9605606994   -2.7643735400   -1.5952382312
H       -2.5281684538   -1.9565944717   -1.4732745391
H       -2.1637354230   -3.3403723367   -0.4477999704
H       -2.8163280823   -1.9705746401    1.5196108302
H       -1.4682025822   -1.2134108216    2.3660980623
H       -1.3625863212   -2.8992754709    1.8540128611
27   
torsion grid (120,)
C        1.2541387903    1.4012870746    0.3015846490
C        0.1473742188    0.5345019362    0.9491965254
C        0.7980892365   -0.1540370788    2.1927699409
C       -0.9741666293    1.5092072491    1.3874945041
C       -0.4511856781   -0.4852390811   -0.0533528888
C       -0.1830027122   -0.2020405690   -1.5187793857
C       -1.2437502780   -1.5203898788    0.3055199086
C       -1.8051227272   -2.5157348166   -0.7012305331
C       -1.7251363190   -1.8235435177    1.7100454923
H        0.8918357686    1.9931304576   -0.5431993277
H        2.0958316292    0.7916421289   -0.0441952453
H        1.6411471703    2.1026033158    1.0483663596
H        0.2894140258    0.1152560117    3.1241301169
H        0.8062771852   -1.2413929302    2.1098399939
H        1.8390559905    0.1656677062    2.3058742844
H       -1.7910969404    0.9908217578    1.8955358314
H       -1.3994900430    2.0226458649    0.5178419844
H       -0.5786107589    2.2727613617    2.0684840169
H        0.8833792121   -0.2551199661   -1.7656716763
H       -0.5133651069    0.8103497165   -1.7816665348
H       -0.7115814637   -0.8853285901   -2.1820239200
H       -1.0928712138   -2.7839067672   -1.4850387911
H       -2.7104508298   -2.1316655488   -1.1903418629
H       -2.0900109928   -3.4438603397   -0.1947000872
H       -2.8130842693   -1.9709537956    1.6929439735
H       -1.5108378169   -1.0498591133    2.4425987448
H       -1.2928440218   -2.7637167383    2.0787073191
27   
torsion grid (135,)
C        1.3688235459    1.2621369166    0.6692899419
C        0.1781740250    0.4167744425    1.1848329456
C        0.7074310853   -0.3676398039    2.4241980481
C       -0.9286445392    1.4107330538    1.6125609718
C       -0.3846636851   -0.5095440224    0.0762935756
C       -0.0686799793   -0.0852057333   -1.3459027808
C       -1.1782434133   -1.5800454185    0.3064243168
C       -1.6701207665   -2.5001171550   -0.8014896441
C       -1.7265862320   -2.0048086005    1.6540313860
H        1.1034574852    1.9049490320   -0.1735372778
H        2.2093014782    0.6290459674    0.3637171651
H        1.7221387752    1.9131480094    1.4755579878
H        0.0104722394   -0.3424029485    3.2660025342
H        0.9237979725   -1.4111429432    2.1852042110
H        1.6366690252    0.0838866778    2.7872959459
H       -1.8041805085    0.8919831453    2.0125318633
H       -1.2614084095    2.0125118806    0.7593740845
H       -0.5566451287    2.0972355782    2.3830726730
H        1.0010402328   -0.1496644895   -1.5758969165
H       -0.3597196109    0.9600149851   -1.5055868306
H       -0.6053161945   -0.6736621260   -2.0887062820
H       -0.9602508783   -2.6124627499   -1.6231225287
H       -2.6220062078   -2.1501704297   -1.2242014723
H       -1.8560500266   -3.5016214282   -0.3979347118
H       -2.7861883704   -2.2675669933    1.5419785818
H       -1.6604436437   -1.2437501255    2.4270516509
H       -1.2213807824   -2.9067886165    2.0247628892
27   
torsion grid (150,)
C        1.4932506173    1.2192543047    0.5549297815
C        0.2721883136    0.4079730877    1.0553954856
C        0.7923147249   -0.4433424326    2.2455391476
C       -0.7830807643    1.4251029625    1.5494947101
C       -0.3392337214   -0.4496398465   -0.0829520778
C       -0.0474380535    0.0452076531   -1.4882895602
C       -1.1427496187   -1.5208317330    0.1085328130
C       -1.6494655687   -2.3936993175   -1.0291291179
C       -1.6821408443   -1.9995074725    1.4436821753
H        1.2474428591    1.9044298387   -0.2595687762
H        2.3000606745    0.5608251301    0.2139505668
H        1.8862937038    1.8234077810    1.3789776113
H        0.0258544338   -0.6459829322    2.9950466368
H        1.2032162658   -1.3974489793    1.9031563167
H        1.5921105561    0.0959167652    2.7648764574
H       -1.6746503822    0.9253515197    1.9383681085
H       -1.1018178314    2.0830121276    0.7332610475
H       -0.3707190252    2.0553485302    2.3470771937
H        1.0102435953   -0.0515495940   -1.7594817258
H       -0.2956867367    1.1096975213   -1.5742399620
H       -0.6350846985   -0.4709004329   -2.2460188421
H       -0.9960456563   -2.4046345890   -1.9026151099
H       -2.6512927234   -2.0842669253   -1.3582236168
H       -1.7415099774   -3.4299716607   -0.6836956188
H       -2.6968946231   -2.3896980236    1.3010357832
H       -1.7411204553   -1.2213323322    2.2016808863
H       -1.0842071398   -2.8245216536    1.8522396518
27   
torsion grid (165,)
C        1.5349084258    1.2854404522    0.4209674566
C        0.3308558468    0.4396076470    0.9050338098
C        0.9004252924   -0.4862171085    2.0075137399
C       -0.7044799074    1.4210386636    1.5017103853
C       -0.3128780635   -0.3535795526   -0.2637018016
C        0.0072618386    0.1696298003   -1.6527441168
C       -1.1591079674   -1.3987233566   -0.1131109692
C       -1.6886482262   -2.2107916469   -1.2860140895
C       -1.7328395540   -1.9075546886    1.1965260548
H        1.2591706569    2.0314397664   -0.3281272432
H        2.3273511394    0.6570611519    0.0004085025
H        1.9610303921    1.8250333668    1.2730880329
H        0.1339797042   -0.9568471003    2.6218218841
H        1.5138968104   -1.2785759945    1.5661833415
H        1.5375888004    0.0942687300    2.6845893776
H       -1.5791411103    0.9025513337    1.9023441622
H       -1.0581984429    2.1208362552    0.7363190413
H       -0.2578583626    2.0086842201    2.3131775993
H        1.0651034058    0.0536553508   -1.9153053008
H       -0.2133102030    1.2417704522   -1.7137468236
H       -0.5839145129   -0.3115180578   -2.4302793467
H       -1.0134311288   -2.2405766561   -2.1424515500
H       -2.6601283113   -1.8320262676   -1.6329872987
H       -1.8528403651   -3.2476059179   -0.9708486551
H       -2.7687207414   -2.2280415649    1.0320312700
H       -1.7501696018   -1.1681278756    1.9942869129
H       -1.1880099014   -2.7883150109    1.5610642309
27   
torsion grid (180,)
C        1.4925191123    1.5482229875    0.3973476625
C        0.5085939065    0.4142662123    0.7773077913
C        1.3016980874   -0.5909126653    1.6451098572
C       -0.6049809444    1.1017599565    1.6024033036
C       -0.0597047632   -0.2998270405   -0.4792702191
C        0.6756173800   -0.0215284055   -1.7781041040
C       -1.1013585561   -1.1638677310   -0.4701753308
C       -1.6735544421   -1.7719153683   -1.7444945804
C       -1.8333896441   -1.6863423919    0.7512118070
H        1.0101450988    2.3203471403   -0.2106532016
H        2.3698331981    1.1862228740   -0.1445155532
H        1.8537322679    2.0306669820    1.3118064243
H        0.6922132747   -1.4372561481    1.9685158307
H        2.1473749246   -0.9975339938    1.0790983839
H        1.7026779880   -0.0978303889    2.5390472607
H       -1.3202374749    0.4065732104    2.0392662371
H       -1.1658421687    1.8005444992    0.9724068816
H       -0.1602760977    1.6738016253    2.4252507744
H        1.7450396872   -0.2336579597   -1.6651216081
H        0.5975625602    1.0265057113   -2.0895926336
H        0.3225124279   -0.6394956994   -2.6020707586
H       -1.1370705343   -2.6857004731   -2.0346336929
H       -1.6574625270   -1.0899937229   -2.5970394972
H       -2.7182585888   -2.0590476583   -1.5835529148
H       -2.8223327972   -1.2189092704    0.8502559065
H       -1.3037141156   -1.5541292021    1.6912353059
H       -2.0106218491   -2.7622559506    0.6282157936
