14   
torsion grid (-165,)
C        0.5531711776   -0.6522973296   -1.6539776475
C        0.0034384932   -1.8716344674   -1.5868681670
C       -1.3018024560   -2.2397206802   -0.9552711190
C       -3.4155493138   -1.1572033465   -0.1021204884
N       -4.1621692735   -0.1359015699   -0.2945349730
N       -2.1504577655   -1.1630797141   -0.6903015659
O       -1.5698580508   -3.4071869781   -0.7166855690
O       -3.6480590880   -2.2612336915    0.6494525550
H        1.5223942421   -0.5040949187   -2.1224999407
H        0.0892927649    0.2342812586   -1.2273408140
H        0.5244666197   -2.7368906770   -1.9881005216
H       -5.0387647370   -0.1852853419    0.2250379967
H       -1.9580207207   -0.2856509854   -1.1563714673
H       -4.5542656993   -2.2090448702    0.9951263741
14   
torsion grid (-150,)
C        0.8229988473   -1.8355793800   -0.9189995485
C       -0.0719132525   -1.3511849956   -1.7896130427
C       -1.5591251489   -1.3847178218   -1.6270603280
C       -3.2817451453   -1.4104282353    0.2204448192
N       -3.4628148877   -1.0292957527    1.4284138484
N       -1.9878047141   -1.3502437717   -0.2982393318
O       -2.2970041121   -1.4436305395   -2.5977161859
O       -4.1749500330   -1.9229522793   -0.6613110234
H        1.8856911850   -1.8274847426   -1.1462986520
H        0.5336861235   -2.2828450440    0.0294762218
H        0.2418402043   -0.9680982505   -2.7571279825
H       -4.4240071358   -1.1621393799    1.7434853710
H       -1.3192714805   -1.0506970416    0.4005708525
H       -5.0534099824   -1.9093216244   -0.2470247480
14   
torsion grid (-135,)
C        0.8164284992   -1.8941811835   -0.9500982367
C       -0.0628543483   -1.2889640595   -1.7581766927
C       -1.5507134215   -1.3960660605   -1.6176268446
C       -3.2857448036   -1.3856106527    0.2233467445
N       -3.4836512160   -0.9739576669    1.4184215047
N       -1.9953481564   -1.2841385648   -0.2990078683
O       -2.2649458411   -1.5918196785   -2.5868969115
O       -4.1564340371   -1.9598612430   -0.6428041247
H        1.8821945929   -1.8689048128   -1.1614687687
H        0.5038763166   -2.4522811244   -0.0700397915
H        0.2609223575   -0.7968619067   -2.6719080379
H       -4.4403216895   -1.1311429000    1.7360571643
H       -1.3384755893   -0.9254537933    0.3832527259
H       -5.0327621957   -1.9793752123   -0.2240505926
14   
torsion grid (-120,)
C        0.8361065096   -1.9327439510   -0.9913862743
C       -0.0562563048   -1.2488441385   -1.7167954187
C       -1.5408650338   -1.4418264613   -1.5963175660
C       -3.3034964838   -1.3589940861    0.2230965193
N       -3.5009459936   -0.9651234937    1.4241165218
N       -2.0175421730   -1.2243766548   -0.3041172724
O       -2.2131258818   -1.7969626325   -2.5490449294
O       -4.1723456430   -1.9242687681   -0.6505602805
H        1.9010628634   -1.8611835111   -1.1965048360
H        0.5331332180   -2.5943982992   -0.1824028220
H        0.2560832163   -0.6471313691   -2.5672529177
H       -4.4590431263   -1.1211734529    1.7378224139
H       -1.3691367721   -0.8323459771    0.3681182564
H       -5.0414579273   -1.9792460636   -0.2197711242
14   
torsion grid (-105,)
C        0.8838410159   -1.9724561058   -1.0645561545
C       -0.0521621823   -1.2294081429   -1.6634505975
C       -1.5261828723   -1.5176243216   -1.5476615142
C       -3.3319459329   -1.3300959531    0.2237265818
N       -3.5430552547   -0.9171784276    1.4157615816
N       -2.0413857871   -1.1945356018   -0.2939219773
O       -2.1535953100   -2.0164570110   -2.4648026279
O       -4.1912727303   -1.9052717676   -0.6527810568
H        1.9408373919   -1.8137874671   -1.2621496398
H        0.6256696379   -2.7653524566   -0.3655147445
H        0.2179542466   -0.4793664822   -2.4042972866
H       -4.5071604999   -1.0591162035    1.7175379195
H       -1.4056531086   -0.7680557503    0.3697071529
H       -5.0637181465   -1.9599131679   -0.2285973665
14   
torsion grid (-90,)
C        0.9480201807   -2.0136168209   -1.1744489733
C       -0.0489293210   -1.2305455941   -1.5943660057
C       -1.5036125436   -1.6146765194   -1.4733579997
C       -3.3652707369   -1.3005670852    0.2225735874
N       -3.6098263264   -0.8137369876    1.3797330833
N       -2.0612892076   -1.1921155880   -0.2678179808
O       -2.0913263999   -2.2256343113   -2.3472085239
O       -4.2009645895   -1.9271604083   -0.6415793187
H        1.9868815368   -1.7393457500   -1.3389312442
H        0.7594329852   -2.9552171595   -0.6633344512
H        0.1527183514   -0.3038836818   -2.1299096553
H       -4.5830540743   -0.9339888430    1.6609098476
H       -1.4461114379   -0.7208795812    0.3851046162
H       -5.0844979492   -1.9572505287   -0.2383667116
14   
torsion grid (-75,)
C        0.9962335965   -2.0376550983   -1.2748576672
C       -0.0454860473   -1.2436759071   -1.5349363142
C       -1.4749537466   -1.7028490091   -1.3917601853
C       -3.3932796132   -1.2638883638    0.2090198560
N       -3.6517059736   -0.7925765111    1.3697217126
N       -2.0872976322   -1.1389134489   -0.2710457654
O       -2.0187547750   -2.4459792920   -2.1883172028
O       -4.2211738167   -1.8712406166   -0.6763138236
H        2.0182587743   -1.6874121129   -1.3940471063
H        0.8584983186   -3.0667168901   -0.9510863864
H        0.0997424762   -0.2109844926   -1.8506976076
H       -4.6331723245   -0.8966012066    1.6279017529
H       -1.4921003791   -0.6371420155    0.3778440605
H       -5.1026383897   -1.9329838943   -0.2724250531
14   
torsion grid (-60,)
C        1.0181103249   -2.0695017196   -1.3882641133
C       -0.0289893234   -1.2421588282   -1.4545667032
C       -1.4431667883   -1.7365945945   -1.3135276416
C       -3.4158762336   -1.2383336101    0.2020309239
N       -3.7205245156   -0.6805155509    1.3124967878
N       -2.1050511974   -1.1018877653   -0.2588975617
O       -1.9459116897   -2.5562835456   -2.0613818033
O       -4.1989448846   -1.9519439484   -0.6439102636
H        2.0376258878   -1.7010400111   -1.4654966428
H        0.8803049513   -3.1422560573   -1.2762387988
H        0.1121770618   -0.1650962660   -1.5409288022
H       -4.7032356884   -0.8017143603    1.5579568496
H       -1.5470589434   -0.5303106002    0.3647417822
H       -5.0872884936   -2.0109820014   -0.2550137428
14   
torsion grid (-45,)
C        1.0268450956   -2.0862602210   -1.4944914422
C       -0.0049177817   -1.2459223898   -1.3651345113
C       -1.4099266012   -1.7577900870   -1.2318242286
C       -3.4367945907   -1.2181078698    0.1943390125
N       -3.7868428151   -0.5880482822    1.2517848650
N       -2.1213936762   -1.0664695555   -0.2464104987
O       -1.8703901299   -2.6442218192   -1.9303382294
O       -4.1733658748   -2.0239971990   -0.6093056180
H        2.0500949092   -1.7254390213   -1.5538332853
H        0.8635021220   -3.1587054336   -1.5660880815
H        0.1564791079   -0.1729877043   -1.2653619636
H       -4.7702600974   -0.7258245097    1.4852603275
H       -1.6038778229   -0.4260992377    0.3440565013
H       -5.0669813770   -2.0887455287   -0.2336525777
14   
torsion grid (-30,)
C        0.9251705004   -1.9034875004   -1.9402066544
C       -0.0422707849   -1.1302367638   -1.4355172558
C       -1.4457862732   -1.6428192605   -1.3144340204
C       -3.4312461753   -1.2348282491    0.2110498249
N       -3.7619521146   -0.6660241689    1.3089572297
N       -2.1314406377   -1.0385519104   -0.2563702288
O       -1.9252414967   -2.4693483731   -2.0721951200
O       -4.1766679410   -2.0133021344   -0.6107539394
H        1.9535478117   -1.5589054531   -2.0037218578
H        0.6940668547   -2.8965890137   -2.3171308927
H        0.1845865374   -0.1423867290   -1.0361845874
H       -4.7348293031   -0.8366031194    1.5639253041
H       -1.6076779394   -0.4260804456    0.3572749203
H       -5.0588698895   -2.1099206394   -0.2154236028
14   
torsion grid (-15,)
C        0.9108839461   -1.8608411035   -2.0414398961
C       -0.0025257217   -1.1921859676   -1.3291123032
C       -1.4122559932   -1.6918713719   -1.2391585035
C       -3.4441751441   -1.2246105599    0.2086519447
N       -3.8396526691   -0.5215656507    1.2027498596
N       -2.1250661877   -1.0629771305   -0.2147376778
O       -1.8719082590   -2.5393764246   -1.9865359875
O       -4.1303121074   -2.1323286560   -0.5274010863
H        1.9420217338   -1.5247574365   -2.1034687937
H        0.6280475286   -2.7591719040   -2.5842509865
H        0.2727901028   -0.2979150293   -0.7715105716
H       -4.8150222575   -0.6954145972    1.4455631911
H       -1.6374170360   -0.3818935947    0.3543237903
H       -5.0340187869   -2.1841743347   -0.1744038597
14   
torsion grid (0,)
C        0.8900472569   -1.8043745174   -2.1144903787
C        0.0307539101   -1.2645023873   -1.2432155894
C       -1.3814301210   -1.7584989727   -1.1640745908
C       -3.4524265749   -1.2110140178    0.1976837424
N       -3.8799574419   -0.4384931216    1.1247653944
N       -2.1220118604   -1.0729523920   -0.1974522697
O       -1.8188468940   -2.6544278492   -1.8671467383
O       -4.1113162544   -2.1775665357   -0.4863630574
H        1.9182880118   -1.4621528093   -2.1892229219
H        0.5645725155   -2.6072326664   -2.7710360016
H        0.3442354149   -0.4595374744   -0.5798286317
H       -4.8601175956   -0.6028254971    1.3545253818
H       -1.6563905384   -0.3447870081    0.3301082081
H       -5.0240106799   -2.2107185118   -0.1549834277
14   
torsion grid (15,)
C        0.8594453805   -1.7344637329   -2.1704795789
C        0.0614607637   -1.3493908822   -1.1685978746
C       -1.3548098957   -1.8330074752   -1.0950504862
C       -3.4545553106   -1.1991086721    0.1826138965
N       -3.9056859065   -0.3593312496    1.0371081026
N       -2.1144264744   -1.0891182112   -0.1880467422
O       -1.7766031751   -2.7735268483   -1.7474552072
O       -4.0953285791   -2.2182794825   -0.4396485980
H        1.8831075024   -1.3800133107   -2.2512615106
H        0.4922017677   -2.4254178303   -2.9250345208
H        0.4152491540   -0.6479149190   -0.4141415867
H       -4.8901918421   -0.5107339751    1.2570009045
H       -1.6630601262   -0.3188925734    0.2899995724
H       -5.0154141099   -2.2298845981   -0.1277372511
14   
torsion grid (30,)
C        0.8177556777   -1.6395826031   -2.2096584916
C        0.0905676759   -1.4566115833   -1.1022788145
C       -1.3368907266   -1.9103701802   -1.0412571454
C       -3.4482314246   -1.1930920471    0.1684363358
N       -3.9328860207   -0.2460496433    0.8801424779
N       -2.0951550769   -1.1277004862   -0.1653440146
O       -1.7638805327   -2.8658019889   -1.6674037594
O       -4.0594623417   -2.3012658257   -0.3167271188
H        1.8427639874   -1.2867234209   -2.2816263859
H        0.3970954686   -2.1669656035   -3.0620923118
H        0.4972475394   -0.9105637622   -0.2518544675
H       -4.9186434839   -0.3849829664    1.1027987664
H       -1.6551693497   -0.3093922592    0.2381324933
H       -4.9937222436   -2.2699813909   -0.0519984443
14   
torsion grid (45,)
C        0.6689952332   -1.2071894633   -2.3921252798
C        0.0531517803   -1.3886783769   -1.2194213741
C       -1.3799183172   -1.8315994946   -1.1564847854
C       -3.4405073847   -1.2090115071    0.1850619899
N       -3.9037762563   -0.3007458504    0.9584547784
N       -2.1006799293   -1.1174018873   -0.1944169757
O       -1.8351586336   -2.7308937994   -1.8418576551
O       -4.0611640297   -2.2997148111   -0.3277649083
H        1.6940625862   -0.8508359722   -2.4469230410
H        0.1617477473   -1.4347337910   -3.3264000835
H        0.5483191702   -1.1357478807   -0.2823899363
H       -4.8783059455   -0.4603481307    1.2142315068
H       -1.6469906974   -0.3201970896    0.2359071691
H       -4.9859591307   -2.2878452576   -0.0303267525
14   
torsion grid (60,)
C        0.6277676448   -1.1105929304   -2.3674160442
C        0.0677400779   -1.4799005842   -1.2118681663
C       -1.3696055685   -1.9174113766   -1.1289306740
C       -3.4330802711   -1.1960933674    0.1589123707
N       -3.9043493827   -0.2288713622    0.8513666649
N       -2.0951489984   -1.1262632559   -0.2340232259
O       -1.8176043463   -2.8716296878   -1.7394163713
O       -4.0433179464   -2.3343532320   -0.2534309208
H        1.6592123212   -0.7714414700   -2.4147346113
H        0.0730009727   -1.1589427209   -3.3013529469
H        0.6172933009   -1.4061728664   -0.2737820424
H       -4.8766774827   -0.3755684648    1.1228791384
H       -1.6449035206   -0.2899459931    0.1192956723
H       -4.9665106079   -2.3077560002    0.0480458093
14   
torsion grid (75,)
C        0.5782259325   -1.0107774876   -2.3234081673
C        0.0834112479   -1.5604500987   -1.2115439681
C       -1.3547350562   -1.9982953752   -1.0901184221
C       -3.4259253629   -1.1837095387    0.1271646371
N       -3.9087103387   -0.1611464887    0.7250202181
N       -2.0891351970   -1.1344447586   -0.2756200676
O       -1.7910761539   -3.0054675862   -1.6170679339
O       -4.0202611208   -2.3649059837   -0.1722364736
H        1.6208811905   -0.7112238559   -2.3908565857
H       -0.0400748577   -0.8591589708   -3.2051582584
H        0.7064078069   -1.7015552052   -0.3288136934
H       -4.8784371484   -0.2940030360    1.0126542212
H       -1.6425066377   -0.2676418676    0.0005464679
H       -4.9442481117   -2.3221630591    0.1249826783
14   
torsion grid (90,)
C        0.5082607447   -0.9333912166   -2.2773772874
C        0.1077220500   -1.6154996938   -1.2013943231
C       -1.3158362151   -2.0761187048   -1.0023612405
C       -3.4207431164   -1.1643524985    0.0834161611
N       -3.8846059642   -0.1383321998    0.6899969482
N       -2.0878537876   -1.1270233319   -0.3344642389
O       -1.7116687063   -3.1584649826   -1.3949428170
O       -4.0368120618   -2.3307000510   -0.2294112646
H        1.5542243548   -0.6764794476   -2.4238908402
H       -0.1915611080   -0.6191054075   -3.0486686769
H        0.8223028893   -1.9489212530   -0.4501394507
H       -4.8619528030   -0.2483202114    0.9608990268
H       -1.6370356503   -0.2519627463   -0.0939513148
H       -4.9506244332   -2.2862715673    0.0978339705
14   
torsion grid (105,)
C        0.4276508507   -0.8516298986   -2.2091618966
C        0.1313553092   -1.6803421704   -1.2030127583
C       -1.2713190275   -2.1438347385   -0.9082215577
C       -3.4037906554   -1.1537194973    0.0436439466
N       -3.8795845615   -0.0904029338    0.5718395724
N       -2.0621001232   -1.1438251794   -0.3457824029
O       -1.6432372587   -3.2703556637   -1.1843665465
O       -4.0163682117   -2.3352052175   -0.2139891556
H        1.4589671799   -0.6298869797   -2.4712238523
H       -0.3471210063   -0.3751626120   -2.8064095101
H        0.9162703850   -2.1950596298   -0.6522419550
H       -4.8649318294   -0.1801504888    0.8203369483
H       -1.6143192751   -0.2555706840   -0.1535887143
H       -4.9376555831   -2.2697976187    0.0877225345
14   
torsion grid (120,)
C        0.3741079905   -0.7978445612   -2.1503841973
C        0.1408247365   -1.7330570124   -1.2223729133
C       -1.2375144178   -2.1871056046   -0.8352783666
C       -3.3899876114   -1.1465582257    0.0061887554
N       -3.8645650389   -0.0716611995    0.5120934148
N       -2.0489522872   -1.1472930703   -0.3828864612
O       -1.5811900789   -3.3494966046   -0.9636425637
O       -4.0081052084   -2.3279655781   -0.2385999178
H        1.3828452746   -0.5881728147   -2.4965256349
H       -0.4318578755   -0.2239014816   -2.6031970547
H        0.9482480659   -2.3475678358   -0.8307908848
H       -4.8545142841   -0.1494457464    0.7458945757
H       -1.6063206098   -0.2496739995   -0.2267586179
H       -4.9292024627   -2.2551995776    0.0618045189
14   
torsion grid (135,)
C        0.3560270438   -0.7631705948   -2.1050749184
C        0.1359106148   -1.7775002898   -1.2594349723
C       -1.2209781052   -2.2061970312   -0.7903742803
C       -3.3848095896   -1.1423496044   -0.0250264724
N       -3.8510505867   -0.0712885236    0.4967756494
N       -2.0539643955   -1.1401570960   -0.4458642474
O       -1.5352997407   -3.3843259994   -0.7565298978
O       -4.0105656375   -2.3184360333   -0.2767004463
H        1.3508228518   -0.5635670350   -2.4945782505
H       -0.4465434268   -0.1170727260   -2.4545156458
H        0.9364998472   -2.4566975727   -0.9772201631
H       -4.8416836857   -0.1449909787    0.7292190068
H       -1.6202194652   -0.2332678627   -0.3232559394
H       -4.9203295318   -2.2559219645    0.0581252302
14   
torsion grid (150,)
C        0.3717839787   -0.7266213222   -2.0515435267
C        0.1174801964   -1.8158479324   -1.3150844845
C       -1.2204871347   -2.2164861004   -0.7777592933
C       -3.3896745026   -1.1460072467   -0.0496961902
N       -3.8574573757   -0.0596789540    0.4384505872
N       -2.0725156469   -1.1426292845   -0.5101381840
O       -1.5039834233   -3.3916742135   -0.6085075761
O       -4.0058996568   -2.3390475969   -0.2366199363
H        1.3635573140   -0.5444425432   -2.4568039581
H       -0.3960068355    0.0016180849   -2.3035728381
H        0.8894285970   -2.5588999284   -1.1326878509
H       -4.8419475876   -0.1350323020    0.6951658919
H       -1.6570601667   -0.2216374178   -0.4455636838
H       -4.9034015636   -2.2785565548    0.1299056954
14   
torsion grid (165,)
C        0.4081646658   -0.6959817952   -1.9908421869
C        0.0930495701   -1.8446497586   -1.3786668752
C       -1.2279507306   -2.2174422169   -0.7836719463
C       -3.4014880068   -1.1529703332   -0.0694890778
N       -3.8748181435   -0.0495373161    0.3731321320
N       -2.1046457145   -1.1492193696   -0.5839123221
O       -1.4758809549   -3.3788242540   -0.4982298982
O       -3.9982309459   -2.3665324341   -0.1642229073
H        1.4003688302   -0.5408919232   -2.4059904421
H       -0.3005501268    0.1168768095   -2.1329923004
H        0.8211154526   -2.6475745069   -1.2989274876
H       -4.8487160410   -0.1282139089    0.6666422246
H       -1.7191367939   -0.2136919049   -0.6014016514
H       -4.8774648680   -2.3062903996    0.2441173914
14   
torsion grid (180,)
C        0.4877081467   -0.6474046937   -1.8293000891
C        0.0505408899   -1.8646123495   -1.4828154415
C       -1.2625922729   -2.2401909928   -0.8686281065
C       -3.4159878707   -1.1653877975   -0.0810857099
N       -4.0011709220   -0.0314587762    0.0247225854
N       -2.1348577169   -1.1810667423   -0.6306299877
O       -1.5061806179   -3.4096761808   -0.6116915002
O       -3.8615647745   -2.3961174499    0.2692794812
H        1.4725603548   -0.5184035160   -2.2700172167
H       -0.0895688812    0.2655507407   -1.6996147775
H        0.6793532200   -2.7369701954   -1.6400020829
H       -4.9321429027   -0.1044589551    0.4349189283
H       -1.8378565794   -0.2468573383   -0.8791722104
H       -4.7544238804   -2.2978890651    0.6395807800
