16   
torsion grid (-165,)
C       -0.3322619568    0.6585454177   -3.0893060767
C        0.3349720162    0.3658813841   -1.8103171647
C       -0.4113718543   -0.1248689304   -0.5946283143
C        0.1511227719    0.4704043768    0.7051486893
C       -0.3205239014   -0.2607106626    1.9486782725
O        0.0819621256    1.7287936265   -2.2178606653
F        0.1315362405   -1.5958304384    1.9237408811
H        0.2240485616    0.5820917358   -4.0232968264
H       -1.4109579453    0.5237871124   -3.1708743780
H        1.3936692813    0.0997679862   -1.8464606985
H       -1.4750477298    0.1200742621   -0.6928612051
H       -0.3284598873   -1.2177940708   -0.5587678586
H        1.2474845742    0.4386344662    0.6864201977
H       -0.1320637032    1.5262249605    0.7879440680
H       -1.4138907936   -0.2971678397    2.0132155027
H        0.0796662903    0.1947425636    2.8599218742
16   
torsion grid (-150,)
C       -0.2642572453    0.6326617780   -3.1142713398
C        0.3240081735    0.3360374669   -1.7981705686
C       -0.5083835522   -0.0294428961   -0.5944423085
C        0.0696229831    0.5458694340    0.7128223569
C       -0.2328985001   -0.3109468945    1.9286923076
O        0.2219115694    1.6967430403   -2.2729463037
F        0.3678933952   -1.5779538850    1.7818744135
H        0.3150548496    0.4587932551   -4.0208391158
H       -1.3473380438    0.6000407071   -3.2341861926
H        1.3515371655   -0.0336184642   -1.7789277167
H       -1.5395827957    0.3093726347   -0.7401788078
H       -0.5301597766   -1.1241216133   -0.5289555492
H        1.1596844069    0.6336580335    0.6309332789
H       -0.3095442627    1.5589171794    0.8875369706
H       -1.3077128732   -0.4830350801    2.0558911047
H        0.1726313489    0.1307338861    2.8443222274
16   
torsion grid (-135,)
C       -0.2085500935    0.5832708537   -3.1123557077
C        0.2993313648    0.2804128033   -1.7645820188
C       -0.6107824912    0.0481829609   -0.5839378340
C       -0.0230053707    0.6069035005    0.7328257582
C       -0.1513869742   -0.3519903288    1.9020329365
O        0.3505571688    1.6257534306   -2.2894652689
F        0.5641408171   -1.5356047907    1.6274280595
H        0.3833651663    0.3198652663   -3.9886631675
H       -1.2844389715    0.6523016663   -3.2743879017
H        1.2831132821   -0.1873626318   -1.6890336427
H       -1.5915675932    0.4893240126   -0.7871728451
H       -0.7549215261   -1.0349904595   -0.4903647560
H        1.0409073275    0.8348277665    0.6012067755
H       -0.5054518576    1.5527800202    1.0023523173
H       -1.1915686039   -0.6458510755    2.0827970989
H        0.2693157190    0.0702776388    2.8200761002
16   
torsion grid (-120,)
C       -0.1462065356    0.5248354759   -3.0907359399
C        0.2776598435    0.2254115580   -1.7136956291
C       -0.6976484226    0.1296195077   -0.5659241443
C       -0.1048441504    0.6748792396    0.7573841317
C       -0.0510515300   -0.3610612041    1.8637656876
O        0.4776007900    1.5393942234   -2.2788658440
F        0.7620697895   -1.4433909573    1.4655726425
H        0.4508046848    0.1748509774   -3.9325727380
H       -1.2034098753    0.6899673836   -3.2999530719
H        1.2077201031   -0.3303161722   -1.5795214984
H       -1.6077002167    0.6767285658   -0.8308087609
H       -0.9775866809   -0.9239677259   -0.4481001818
H        0.9061422857    1.0607197275    0.5888597006
H       -0.6957032466    1.5226082724    1.1226846379
H       -1.0412631250   -0.7749394586    2.0847671568
H        0.3848059147    0.0455881934    2.7818949961
16   
torsion grid (-105,)
C       -0.0873675491    0.4760508352   -3.0654325802
C        0.2452569311    0.1612591931   -1.6667840165
C       -0.7848767505    0.2000666473   -0.5628688285
C       -0.1937258607    0.7152952126    0.7707520635
C        0.0359937343   -0.3826278848    1.7913577930
O        0.6014993047    1.4377703703   -2.2425527090
F        0.9238352041   -1.3489169181    1.2708540453
H        0.5063023776    0.0513566219   -3.8746314212
H       -1.1126592963    0.7428057440   -3.3234985261
H        1.1069469394   -0.4814244764   -1.4809134792
H       -1.6040722412    0.8507149311   -0.8850800485
H       -1.2034354134   -0.8053654761   -0.4335050034
H        0.7432663928    1.2508312550    0.5871318947
H       -0.8758725079    1.4402385481    1.2315245631
H       -0.8939074229   -0.9085063638    2.0344850134
H        0.4864304293    0.0022551681    2.7119421715
16   
torsion grid (-90,)
C       -0.0441594731    0.4018521309   -3.0259162666
C        0.2034308914    0.0942839588   -1.6079551160
C       -0.8628822340    0.2785606989   -0.5521133652
C       -0.2859778372    0.7597001922    0.7945698747
C        0.1118380051   -0.3656444609    1.7314434655
O        0.7110478987    1.3105238202   -2.2018000576
F        1.1005991783   -1.1805451652    1.1386855492
H        0.5303030883   -0.1047659062   -3.8011920227
H       -1.0261540785    0.7656680093   -3.3300713463
H        0.9854633514   -0.6264786440   -1.3712453600
H       -1.5812598826    1.0160027133   -0.9253674473
H       -1.4086391066   -0.6645023496   -0.4188884091
H        0.5680670474    1.4221466936    0.6186134196
H       -1.0383044106    1.3552102692    1.3276847567
H       -0.7385058987   -1.0189809385    1.9563390863
H        0.5330267793    0.0159051513    2.6671057008
16   
torsion grid (-75,)
C        1.1326489760    0.4237693386   -2.6894588553
C        0.0604245285   -0.2077009758   -1.8965933123
C        0.2251690467   -0.5428629771   -0.4320404419
C       -0.3565431103    0.5391781575    0.4925226401
C        0.5007534307    1.7914600512    0.5826266387
O        0.8382044146   -0.9784710313   -2.8303458476
F        1.7794352241    1.4664240145    1.0758408817
H        0.8839689510    1.0366190817   -3.5558321454
H        2.0849880989    0.6466570441   -2.2080445815
H       -0.9680681164   -0.0427622548   -2.2271550015
H       -0.2857810415   -1.4936254589   -0.2391766744
H        1.2841912849   -0.7008828331   -0.2086682641
H       -1.3580831564    0.8381353464    0.1548528891
H       -0.4767210911    0.1313404238    1.5022151163
H        0.0678892239    2.5238717547    1.2712341427
H        0.6480414247    2.2602238252   -0.3956797815
16   
torsion grid (-60,)
C        1.2264073718    0.4219503555   -2.6056649987
C        0.0753383563   -0.1479647375   -1.8815805125
C        0.1679406269   -0.5781675004   -0.4355229624
C       -0.3336124329    0.4930762336    0.5460595779
C        0.4315354375    1.8045874667    0.4731198708
O        0.8089098257   -0.9372357703   -2.8360430330
F        1.8015021784    1.5814090788    0.7182072483
H        1.0625366786    1.1016578873   -3.4418857131
H        2.1753631050    0.5318625365   -2.0814695044
H       -0.9229586326    0.1300450879   -2.2294429415
H       -0.4220952071   -1.4924384773   -0.3012551939
H        1.2073049318   -0.8332720808   -0.2088378389
H       -1.3917228458    0.7200854464    0.3566679537
H       -0.2751537819    0.1027397185    1.5680036389
H        0.0819830122    2.5138154720    1.2299316974
H        0.3590274226    2.2680340522   -0.5154092264
16   
torsion grid (-45,)
C        1.3115800632    0.4076695559   -2.5394954261
C        0.0979469499   -0.0829816649   -1.8636624187
C        0.1195778674   -0.5922283316   -0.4401433039
C       -0.2801361071    0.4652528896    0.6059050860
C        0.3609026626    1.8282686126    0.4095498654
O        0.7743238139   -0.8953190137   -2.8414885205
F        1.7664880516    1.7225314703    0.4579328924
H        1.2275486960    1.1378104435   -3.3443946335
H        2.2536081734    0.4071714837   -1.9933190746
H       -0.8619109186    0.3025210281   -2.2176249380
H       -0.5508294014   -1.4552225183   -0.3566320597
H        1.1298954341   -0.9562509702   -0.2290593618
H       -1.3668887816    0.6269581949    0.5799998612
H       -0.0457323412    0.0929220048    1.6087132418
H        0.0664378178    2.5228373614    1.2026381338
H        0.1099922668    2.2642554941   -0.5617246892
16   
torsion grid (-30,)
C        1.3884894037    0.3712697310   -2.4955607263
C        0.1222395494   -0.0379350103   -1.8668280520
C        0.0684679903   -0.6015240543   -0.4641177410
C       -0.2150438493    0.4421105520    0.6411950093
C        0.2815545243    1.8500020529    0.3637440585
O        0.7523142383   -0.8708719208   -2.8591723846
F        1.6883421669    1.8708656423    0.2610510082
H        1.3877939061    1.1345050810   -3.2734170838
H        2.3124363912    0.2720771297   -1.9287099027
H       -0.7930663923    0.4362061143   -2.2302334529
H       -0.6875353540   -1.3932777696   -0.4225806584
H        1.0327919610   -1.0837149909   -0.2751935337
H       -1.2993305633    0.5345096873    0.7930178508
H        0.1982441768    0.0940026799    1.5931510449
H        0.0147617211    2.5267550984    1.1817238175
H       -0.1108429350    2.2505752842   -0.5751795807
16   
torsion grid (-15,)
C        1.4669141596    0.3208885045   -2.4552658343
C        0.1581882666   -0.0049530352   -1.8698857173
C        0.0256250731   -0.5969742257   -0.4832300449
C       -0.1360463597    0.4325292535    0.6683496955
C        0.2039359752    1.8774651913    0.3457550073
O        0.7500224459   -0.8616552466   -2.8666353285
F        1.5843470919    2.0246551551    0.0945670104
H        1.5455705099    1.1009324647   -3.2116857839
H        2.3650803636    0.1383657381   -1.8678271386
H       -0.7086215735    0.5428225163   -2.2464188565
H       -0.8182523223   -1.2950605160   -0.4761921308
H        0.9223741088   -1.2005053380   -0.3127661053
H       -1.1805757517    0.4449015119    1.0064229653
H        0.4572032152    0.1210935315    1.5336002991
H       -0.0308281815    2.5272365227    1.1948522225
H       -0.3213433164    2.2449151836   -0.5402998068
16   
torsion grid (0,)
C        1.5333429073    0.2393216002   -2.4469574293
C        0.1906819381    0.0335020293   -1.8889674506
C       -0.0269905672   -0.5820316900   -0.5228610523
C       -0.0885960075    0.4163132846    0.6693762834
C        0.0738274759    1.8933186208    0.3492260447
O        0.7079102906   -0.8537169111   -2.9017618207
F        1.3870686846    2.1722251000   -0.0802382726
H        1.7033368265    1.0286521018   -3.1778455681
H        2.3996778691   -0.0505653379   -1.8537618464
H       -0.6088525925    0.6764419475   -2.2615117103
H       -0.9512252683   -1.1690951409   -0.5605547630
H        0.7815221797   -1.3008056501   -0.3612783943
H       -1.0546027194    0.3200518383    1.1800914116
H        0.6713860561    0.1569528865    1.4131969100
H       -0.0977760574    2.4988417837    1.2449241503
H       -0.6005249942    2.2332800002   -0.4425674383
16   
torsion grid (15,)
C        1.6238017563    0.1017203432   -2.4699427071
C        0.2775910557    0.1015721683   -1.8838889105
C       -0.0217352925   -0.5277583810   -0.5397958131
C       -0.0220171958    0.4350538680    0.6789992969
C       -0.0762953468    1.9257547920    0.3851312106
O        0.6168437928   -0.8204869953   -2.9394183039
F        1.1080731291    2.3530219020   -0.2449917393
H        1.9074960615    0.8796208024   -3.1773956087
H        2.4433150391   -0.3556076096   -1.9156559159
H       -0.4046119171    0.8874793009   -2.2099415283
H       -1.0049368346   -1.0064727556   -0.6238585341
H        0.6951623057   -1.3369644506   -0.3746054419
H       -0.8719166331    0.2044152457    1.3318864925
H        0.8772429710    0.2669701939    1.2816689088
H       -0.1620225312    2.4960053462    1.3155969839
H       -0.9068827952    2.1994868070   -0.2741472340
16   
torsion grid (30,)
C        1.7166276095    0.0230696340   -2.4126345297
C        0.3542178791    0.1353751037   -1.8747833212
C       -0.0516470502   -0.4959808132   -0.5602652396
C        0.0212980016    0.4284985319    0.6772668342
C       -0.2131166124    1.9106196199    0.4325525532
O        0.6468478125   -0.7880384150   -2.9435381231
F        0.8560382211    2.4687458088   -0.2942280010
H        2.0977095349    0.7884681386   -3.0873345052
H        2.4694568325   -0.5251170247   -1.8456860254
H       -0.2367693308    0.9913348107   -2.1997036162
H       -1.0824495430   -0.8531392930   -0.6822569965
H        0.5621623187   -1.3863680858   -0.3944603719
H       -0.7067740254    0.0943208530    1.4257622070
H        1.0077435694    0.3408045862    1.1475431396
H       -0.2679021068    2.4555524261    1.3802001496
H       -1.1265491397    2.1041730747   -0.1412214111
16   
torsion grid (45,)
C        1.7670377874   -0.0365348603   -2.3969045255
C        0.3966600505    0.1714287249   -1.9064492325
C       -0.0895503469   -0.4353248597   -0.6082670367
C        0.0942741266    0.4536609982    0.6364472313
C       -0.3034765052    1.9120595111    0.4766447732
O        0.6615169911   -0.7619863700   -2.9743353213
F        0.6084404110    2.5899166055   -0.3563644971
H        2.2282030741    0.7036810269   -3.0495084631
H        2.4570626079   -0.6444983610   -1.8108674296
H       -0.1166698111    1.0718363702   -2.2405936685
H       -1.1552157382   -0.6715362948   -0.7287535755
H        0.4237621259   -1.3900015647   -0.4549114439
H       -0.4934603157    0.0370192956    1.4636399709
H        1.1424536825    0.4350362200    0.9585712482
H       -0.2906744014    2.4292475985    1.4411240415
H       -1.2954564728    2.0245806787    0.0239174182
16   
torsion grid (60,)
C       -0.7978350198    0.5765286704   -2.7508350032
C        0.0870041790    0.6408054184   -1.5753119255
C        0.3943204840   -0.5725188936   -0.7282852113
C        0.6393725970   -0.2448872056    0.7536760229
C       -0.5353935614    0.4209337214    1.4527006238
O       -1.2548041746    1.1711641497   -1.5224016287
F       -1.6185333897   -0.4776872628    1.5217796762
H       -0.6578557463    1.2730313979   -3.5771009894
H       -1.2741011137   -0.3702063124   -3.0055600153
H        0.8512106697    1.4223896812   -1.5710167740
H       -0.4375348730   -1.2797655853   -0.8113316740
H        1.2832162917   -1.0661935366   -1.1409847077
H        0.8986436753   -1.1614028622    1.2953714288
H        1.5018651185    0.4301430135    0.8460387033
H       -0.8889315854    1.3069043433    0.9207085923
H       -0.2769766704    0.6864821590    2.4830781450
16   
torsion grid (75,)
C       -0.7804234385    0.6131378166   -2.7559967988
C        0.1789859100    0.6136607389   -1.6386940624
C        0.3563304233   -0.5694725368   -0.7162122238
C        0.6414439977   -0.1624135667    0.7392280457
C       -0.5858529316    0.3493827340    1.4776700516
O       -1.0653388201    1.3450393509   -1.5491698675
F       -1.5252163911   -0.6952740150    1.6065996127
H       -0.5934725172    1.2296790152   -3.6348023084
H       -1.4064591823   -0.2641491449   -2.9180766769
H        1.0477063709    1.2703467072   -1.7282124840
H       -0.5364951761   -1.2017928526   -0.7503884619
H        1.1921840581   -1.1699229276   -1.0973481675
H        1.0420603358   -1.0195213237    1.2923551398
H        1.4111811364    0.6205604689    0.7703768769
H       -1.0820677416    1.1606090012    0.9404173583
H       -0.3307719472    0.6735675151    2.4917255832
16   
torsion grid (90,)
C       -0.7748144299    0.6718148484   -2.7417905285
C        0.2350864891    0.5846729193   -1.6740091481
C        0.2951179077   -0.5617349658   -0.6931684401
C        0.6217499640   -0.0931788092    0.7391554479
C       -0.6222150738    0.2382645263    1.5479087535
O       -0.8913377648    1.4849373798   -1.5578357740
F       -1.3860780490   -0.9336295757    1.7358840772
H       -0.5540575782    1.2207020425   -3.6568805924
H       -1.5224962774   -0.1160474828   -2.8319539378
H        1.1790913831    1.1104936121   -1.8346659946
H       -0.6508309188   -1.1116007884   -0.6950869403
H        1.0677787187   -1.2580286207   -1.0419806788
H        1.1760018772   -0.8717386126    1.2749217141
H        1.2661399865    0.7948612343    0.7169106689
H       -1.2616264542    0.9591691073    1.0316351902
H       -0.3658772300    0.6130725055    2.5438857395
16   
torsion grid (105,)
C       -0.7269777785    0.6997311530   -2.7877088491
C        0.2764889754    0.5581708144   -1.7199228331
C        0.2138706529   -0.5307486820   -0.6769706855
C        0.5896879847   -0.0124242025    0.7313251386
C       -0.6182203044    0.1525061575    1.6369353896
O       -0.7476207275    1.5767364864   -1.6438326113
F       -1.2164793247   -1.1048933826    1.8640038173
H       -0.4573720756    1.1779488525   -3.7290442928
H       -1.5538891333   -0.0085501014   -2.8378241747
H        1.2700187973    0.9715794983   -1.9076776063
H       -0.7875493917   -0.9708104873   -0.6579918665
H        0.8994820561   -1.3305788375   -0.9806879345
H        1.2897653624   -0.6982200927    1.2202698211
H        1.0950159301    0.9586283993    0.6633879077
H       -1.3787237294    0.7928746343    1.1797597816
H       -0.3381276481    0.5536002315    2.6161574662
16   
torsion grid (120,)
C       -0.6573014808    0.7069233116   -2.8560119266
C        0.3126088179    0.5327784523   -1.7624651406
C        0.1255081977   -0.4840487561   -0.6631673520
C        0.5485413026    0.0661096062    0.7218543800
C       -0.5863652757    0.0715226393    1.7286192044
O       -0.6108070556    1.6444328464   -1.7616229392
F       -1.0247785987   -1.2477840780    1.9677607202
H       -0.3299696617    1.1037255467   -3.8166826431
H       -1.5468110071    0.0775219055   -2.8834062561
H        1.3436243945    0.8390704131   -1.9537656605
H       -0.9246032043   -0.7915803674   -0.6380962692
H        0.7028281944   -1.3812931705   -0.9122930236
H        1.3812102802   -0.5124668159    1.1350114295
H        0.8991029853    1.1012149448    0.6284895068
H       -1.4485494720    0.6334164218    1.3550813193
H       -0.2709086165    0.4829216933    2.6928068008
16   
torsion grid (135,)
C       -0.5884532131    0.7112870233   -2.9180679772
C        0.3419456722    0.4985418986   -1.7974123159
C        0.0341080060   -0.4394954640   -0.6554563827
C        0.4896972572    0.1327955605    0.7071811638
C       -0.5504327143   -0.0279546011    1.7986347999
O       -0.4703194862    1.6911363389   -1.8668685605
F       -0.8191486268   -1.3949597593    2.0193748820
H       -0.2086999618    1.0290512761   -3.8887847685
H       -1.5333887923    0.1681218066   -2.9352285698
H        1.4005461773    0.6955018258   -1.9813961088
H       -1.0468747160   -0.6153662030   -0.6396067527
H        0.5032704939   -1.4112258519   -0.8428636665
H        1.4308297720   -0.3240524286    1.0307050078
H        0.6748165268    1.2101398241    0.6127557506
H       -1.4980514600    0.4428107275    1.5163648016
H       -0.2063382227    0.3880174119    2.7510826793
16   
torsion grid (150,)
C       -0.5299560328    0.7107787221   -2.9675372568
C        0.3514286972    0.4714728544   -1.8131039601
C       -0.0717559324   -0.3690308193   -0.6324332740
C        0.4205486709    0.2242500828    0.7019727953
C       -0.4964312912   -0.0869971145    1.8683961522
O       -0.3380065617    1.7310408516   -1.9670553111
F       -0.5868195478   -1.4810836415    2.0632766935
H       -0.1013191528    0.9361522270   -3.9437378374
H       -1.5231220030    0.2616686903   -2.9802398012
H        1.4277852356    0.5537434268   -1.9803116024
H       -1.1667825889   -0.4191848859   -0.6277369215
H        0.2906255265   -1.3951897186   -0.7558161637
H        1.4372750763   -0.1144628564    0.9296706105
H        0.4573286461    1.3180467252    0.6187942923
H       -1.5131549925    0.2755043512    1.6823803294
H       -0.1229934259    0.3428210372    2.8034789544
16   
torsion grid (165,)
C       -0.4635337040    0.7079050200   -3.0152564839
C        0.3533929659    0.4389761136   -1.8206222347
C       -0.1860665445   -0.2993745192   -0.6194918696
C        0.3310469606    0.2997092820    0.6974452186
C       -0.4505385457   -0.1633320225    1.9114880527
O       -0.1981530366    1.7523040703   -2.0577175387
F       -0.3520059501   -1.5631058075    2.0537535886
H        0.0149861240    0.8389239474   -3.9855033604
H       -1.4968167202    0.3616320699   -3.0417556624
H        1.4369730696    0.4026845743   -1.9540044729
H       -1.2810313825   -0.2424906414   -0.6413919479
H        0.0825041407   -1.3594715904   -0.6859231680
H        1.3935378549    0.0677526327    0.8357547686
H        0.2429483215    1.3928270270    0.6537115108
H       -1.5161157496    0.0723559611    1.8155779006
H       -0.0633651503    0.2794395300    2.8347730447
16   
torsion grid (180,)
C       -0.3940492753    0.6924208132   -3.0632326106
C        0.3472412491    0.4155769928   -1.8220582470
C       -0.3034312446   -0.1988627691   -0.6072000673
C        0.2395073837    0.4034194109    0.6956801480
C       -0.3948418664   -0.1933755401    1.9377460799
O       -0.0612931993    1.7607987986   -2.1551585687
F       -0.1144525215   -1.5732545162    2.0119090753
H        0.1313913253    0.7173850921   -4.0176515639
H       -1.4550567271    0.4476830737   -3.1154553156
H        1.4259055505    0.2654630708   -1.9057588838
H       -1.3870601120   -0.0414800055   -0.6645780855
H       -0.1299365113   -1.2812063391   -0.6156028881
H        1.3261531591    0.2652028003    0.7522289508
H        0.0535269734    1.4844721642    0.7041979325
H       -1.4857175775   -0.0910848179    1.9252683194
H        0.0002996360    0.2622120230    2.8512418492
