29   
torsion grid (-165,)
C       -2.1270460982   -3.1810613145   -1.3889144812
C        5.7139666216    1.1781510405    0.2074814572
C       -1.5687862550   -3.6432958937   -0.1930366444
C       -1.6157183362   -2.0243568950   -1.9876111946
C        5.0770443055    0.4627549509    1.2225008269
C        5.0560144327    1.3506427660   -1.0180036858
C       -0.5074467604   -2.9499825702    0.3968799607
C       -0.5583115808   -1.3303323996   -1.3929696191
C        3.7990869452   -0.0790953822    1.0338835319
C        3.7846831595    0.8180819802   -1.2200149429
C        0.0043933721   -1.7884871760   -0.1944268882
C        3.1478134225    0.0986629743   -0.1954464804
C        0.5159008109    0.0533834500    1.4375115127
C        1.1028221248   -1.0132669782    0.5038275058
O        1.9137932280   -0.4041190044   -0.5153116408
H       -2.9488422091   -3.7202447002   -1.8531057249
H        6.7042939106    1.5956638482    0.3655080654
H       -1.9532214811   -4.5455442236    0.2758417917
H       -2.0404247577   -1.6633631504   -2.9210654645
H        5.5727631813    0.3194404110    2.1794283660
H        5.5362280035    1.9038133903   -1.8212705509
H       -0.0719603165   -3.3201528456    1.3232904903
H       -0.1549337103   -0.4391225899   -1.8632486762
H        3.3346253078   -0.6291074217    1.8441613600
H        3.2647506957    0.9410892599   -2.1657831877
H        1.3005423050    0.6358698937    1.9274218378
H       -0.1001717485   -0.4217508980    2.2070059971
H       -0.1182972586    0.7345066949    0.8626795961
H        1.7140052137   -1.7213551253    1.0757567531
29   
torsion grid (-150,)
C       -1.9850880776   -3.2356669997   -1.4566763586
C        5.7666009418    0.9833235546    0.1226443753
C       -1.3911496570   -3.7001392048   -0.2789920471
C       -1.5822228952   -2.0089119479   -1.9958833933
C        5.0768176748    0.4097751256    1.1914573073
C        5.0978372075    1.1720619042   -1.0948170283
C       -0.4022955708   -2.9394134989    0.3524004570
C       -0.5970686838   -1.2477620007   -1.3606810831
C        3.7358744466    0.0241510341    1.0633713181
C        3.7662244953    0.7897346290   -1.2388382578
C        0.0007832616   -1.7086511627   -0.1802569407
C        3.0767502466    0.2098882768   -0.1607494314
C        0.3600198839    0.0862767773    1.5566463953
C        1.0235254066   -0.8711254073    0.5604303852
O        1.7729908617   -0.1243992857   -0.4139991292
H       -2.7505547245   -3.8267219074   -1.9529171777
H        6.8055366926    1.2806518407    0.2332653575
H       -1.6910443997   -4.6558239024    0.1434032987
H       -2.0353347821   -1.6453148049   -2.9148511672
H        5.5779955268    0.2610893206    2.1447311371
H        5.6187791668    1.6165118480   -1.9391741810
H        0.0620152987   -3.3107661467    1.2642693663
H       -0.2767231416   -0.3016101183   -1.7854877255
H        3.2274884495   -0.4043059521    1.9193701207
H        3.2382634977    0.9232936865   -2.1786493748
H        1.1056444808    0.6944802386    2.0768601169
H       -0.2147347252   -0.4771384532    2.2982105255
H       -0.3247870641    0.7535447235    1.0253257468
H        1.7011030107   -1.5512896508    1.0879408096
29   
torsion grid (-135,)
C       -1.8059702703   -3.2524790867   -1.5398944334
C        5.7736414488    0.7740676286   -0.0008683216
C       -1.2044669121   -3.7185728336   -0.3666559937
C       -1.4935466961   -1.9732655126   -2.0133304929
C        5.0834424073    0.3509674928    1.1369580131
C        5.0667841944    0.9652102420   -1.1953754412
C       -0.2994351259   -2.9080776089    0.3256927880
C       -0.5917754988   -1.1622726602   -1.3186402609
C        3.7034952784    0.1166690914    1.0978709893
C        3.6942798954    0.7271299698   -1.2502566267
C        0.0121656994   -1.6254943666   -0.1423645503
C        3.0051801772    0.2974860180   -0.1053376611
C        0.1970420608    0.1113444257    1.6868797645
C        0.9465099713   -0.7418022388    0.6600110639
O        1.6540784716    0.1207577368   -0.2522558607
H       -2.5062805230   -3.8818460540   -2.0830822460
H        6.8439270969    0.9553394254    0.0407951602
H       -1.4332111488   -4.7141164023    0.0051992455
H       -1.9524718963   -1.6072297623   -2.9284308546
H        5.6163093380    0.2084723733    2.0738464526
H        5.5881224281    1.2936120362   -2.0910719064
H        0.1713741456   -3.2805804022    1.2337914524
H       -0.3401286629   -0.1749298831   -1.6932211014
H        3.1896099607   -0.1852615971    2.0040977794
H        3.1345569672    0.8603316845   -2.1714450240
H        0.8941748214    0.7299549983    2.2602940788
H       -0.3624432827   -0.5262653022    2.3785626401
H       -0.5119035385    0.7688499995    1.1752440531
H        1.6673527920   -1.3888082065    1.1697736784
29   
torsion grid (-120,)
C       -1.4581373375   -3.6796239568   -1.2718365792
C        5.5772290930    0.7723261540   -0.1418933868
C       -1.1509922531   -3.7951648901    0.0887734036
C       -1.0228418631   -2.5587577253   -1.9851035296
C        5.0266407265   -0.5025156702    0.0241636444
C        4.7251718615    1.8688860539   -0.3186291189
C       -0.4170711617   -2.7909903775    0.7247611768
C       -0.2882321109   -1.5540406262   -1.3458199296
C        3.6405377109   -0.6878245176    0.0172599879
C        3.3388212545    1.6989514238   -0.3152971810
C        0.0170875925   -1.6615174808    0.0158359455
C        2.7951665012    0.4197692299   -0.1422137666
C       -0.1537510469    0.2992960105    1.5987322452
C        0.7761187724   -0.5685338875    0.7450355751
O        1.4267796507    0.3060682299   -0.1990052448
H       -2.0264222842   -4.4599421526   -1.7715159284
H        6.6550935959    0.9089192702   -0.1397364658
H       -1.4770833581   -4.6670511484    0.6503790226
H       -1.2520523155   -2.4665036321   -3.0438952264
H        5.6778816095   -1.3645560520    0.1453983709
H        5.1408970239    2.8645423797   -0.4515965244
H       -0.1759556666   -2.8901847304    1.7818131136
H        0.0605187326   -0.6886823667   -1.8997821183
H        3.2217823317   -1.6858127104    0.1078827018
H        2.6637637245    2.5402317391   -0.4432607027
H        0.4257794553    1.0612656373    2.1290875104
H       -0.6879523350   -0.3135814562    2.3312029096
H       -0.8903258668    0.7946733129    0.9597004700
H        1.5320464761   -1.0228595270    1.3936214331
29   
torsion grid (-105,)
C       -1.1956326372   -3.6666823513   -1.3249565889
C        5.5093966921    0.5849453239   -0.3255544452
C       -0.9577830969   -3.7936113422    0.0484795118
C       -0.7994753368   -2.5014850504   -1.9882943677
C        4.8712098330   -0.6364089559   -0.0917084162
C        4.7386899315    1.7486395287   -0.4406599926
C       -0.3321398439   -2.7593472472    0.7489185081
C       -0.1740006532   -1.4663773675   -1.2849714138
C        3.4790787111   -0.7061801721    0.0302797846
C        3.3500555067    1.6956290693   -0.3109719193
C        0.0600965709   -1.5856591709    0.0895485794
C        2.7187691767    0.4680182215   -0.0686233620
C       -0.3430071065    0.3318788537    1.6753243969
C        0.7005808899   -0.4586458846    0.8811567445
O        1.3475362048    0.4848996360    0.0072754881
H       -1.6791013463   -4.4715429130   -1.8726649719
H        6.5905898203    0.6300039537   -0.4223570017
H       -1.2540293216   -4.6994826733    0.5714470345
H       -0.9733993440   -2.3985517695   -3.0565657239
H        5.4562039047   -1.5496444230   -0.0162201811
H        5.2215143991    2.7050836221   -0.6249493430
H       -0.1437337382   -2.8688134007    1.8156736287
H        0.1445344150   -0.5652832366   -1.7991781802
H        2.9926678138   -1.6662453828    0.1714804202
H        2.7386825385    2.5900266744   -0.3894753057
H        0.1442409175    1.1184000858    2.2593760886
H       -0.8888745666   -0.3300060267    2.3541236489
H       -1.0615361897    0.7919187974    0.9909241215
H        1.4408914258   -0.8700119338    1.5758404941
29   
torsion grid (-90,)
C       -0.9440081643   -3.6087648422   -1.3657959301
C        5.4076489058    0.4024898265   -0.4838254433
C       -0.6998561129   -3.7866306428    0.0004495625
C       -0.6613689644   -2.3758745257   -1.9627931803
C        4.7135941468   -0.7555996244   -0.1260138635
C        4.7083126513    1.6114122149   -0.5955663815
C       -0.1786934020   -2.7354683267    0.7598357885
C       -0.1426387118   -1.3247059811   -1.2004919287
C        3.3362225922   -0.7215959933    0.1228776525
C        3.3377300117    1.6622956624   -0.3432625138
C        0.0992477098   -1.4963985115    0.1673481707
C        2.6489103975    0.4964183316    0.0223088253
C       -0.5238041307    0.3842201420    1.7208769343
C        0.6198058834   -0.3519877623    1.0204524639
O        1.2981547368    0.6361220943    0.2276957197
H       -1.3442162051   -4.4260090132   -1.9602914474
H        6.4759705126    0.3651591736   -0.6777493274
H       -0.9085929848   -4.7438277395    0.4716718409
H       -0.8402663906   -2.2335741381   -3.0256668813
H        5.2407507474   -1.7032780349   -0.0487457726
H        5.2338172612    2.5212892746   -0.8746062080
H        0.0176309570   -2.8825122323    1.8207038762
H        0.0901695901   -0.3709862190   -1.6641275945
H        2.8097867256   -1.6389291600    0.3618918959
H        2.7826015164    2.5930140543   -0.4180541665
H       -0.1278724133    1.1841120260    2.3535404427
H       -1.0980749236   -0.3110607947    2.3398585130
H       -1.1976126225    0.8204083173    0.9778077341
H        1.3128475167   -0.7402791345    1.7764419967
29   
torsion grid (-75,)
C       -0.7046916813   -3.5174234263   -1.4306904555
C        5.2956823212    0.2390573238   -0.6602888608
C       -0.5049028997   -3.7435082882   -0.0646480770
C       -0.4726458180   -2.2440016914   -1.9614764286
C        4.6027056284   -0.8526288064   -0.1344086991
C        4.6321891283    1.4659302287   -0.7975692564
C       -0.0756260911   -2.7000796324    0.7605864952
C       -0.0482301953   -1.2012744812   -1.1331873821
C        3.2623220051   -0.7380800963    0.2559701132
C        3.3000145041    1.5965328471   -0.4099687092
C        0.1526203169   -1.4224395721    0.2343534252
C        2.6103065125    0.4953588077    0.1210739149
C       -0.6492573204    0.4156047904    1.7588493151
C        0.5666150222   -0.2878877859    1.1565177734
O        1.3033114365    0.7334645227    0.4689590086
H       -1.0317658070   -4.3282051528   -2.0765255128
H        6.3342646186    0.1378896850   -0.9625814695
H       -0.6762910791   -4.7313567948    0.3555920201
H       -0.6176078876   -2.0639252954   -3.0237534559
H        5.1005113886   -1.8135055738   -0.0302147752
H        5.1560465842    2.3266332950   -1.2058138374
H        0.0882009450   -2.8834973222    1.8213353751
H        0.1447824774   -0.2155596013   -1.5460901778
H        2.7416292406   -1.6100195686    0.6325827613
H        2.7736101818    2.5420370695   -0.5052188185
H       -0.3290291815    1.2136256255    2.4351336207
H       -1.2605709997   -0.3010202074    2.3143643955
H       -1.2632004601    0.8491637593    0.9641904646
H        1.1882381583   -0.6876285315    1.9687569334
29   
torsion grid (-60,)
C       -0.4833224868   -3.4259361902   -1.4999397283
C        5.1548801189    0.0968489177   -0.8103735510
C       -0.3166951614   -3.7089082638   -0.1404985392
C       -0.3092554748   -2.1158009290   -1.9598898389
C        4.5136514275   -0.9306316069   -0.1158800829
C        4.4943762905    1.3210864143   -0.9791004929
C        0.0246923188   -2.6859121985    0.7494468598
C        0.0247454006   -1.0948169489   -1.0670005795
C        3.2276710104   -0.7544711064    0.4094562169
C        3.2136552598    1.5103838555   -0.4626873009
C        0.1965335109   -1.3734851660    0.2945806711
C        2.5746898011    0.4728172608    0.2332885249
C       -0.7585278583    0.4362326102    1.7698741931
C        0.5086069603   -0.2629685612    1.2823035880
O        1.3264858052    0.7756545305    0.7202566140
H       -0.7405669011   -4.2203072848   -2.1958125339
H        6.1515780030   -0.0517433446   -1.2163335258
H       -0.4448791489   -4.7246813407    0.2249619691
H       -0.4294867015   -1.8907861692   -3.0166336781
H        5.0111536728   -1.8876434439    0.0203464775
H        4.9784415463    2.1325793709   -1.5167576998
H        0.1644895024   -2.9128351925    1.8051872944
H        0.1720739613   -0.0801912552   -1.4260506244
H        2.7495670787   -1.5747340745    0.9302992678
H        2.6889972805    2.4538803425   -0.5843205720
H       -0.5049855466    1.2229724879    2.4864948993
H       -1.4226340023   -0.2865144811    2.2518731813
H       -1.2895389963    0.8842274752    0.9251030068
H        1.0330078812   -0.6936461760    2.1470466049
29   
torsion grid (-45,)
C       -0.2824284445   -3.3210288984   -1.5490404942
C        5.0183369518   -0.0447148446   -0.9435695452
C       -0.1356789784   -3.6584463695   -0.2003573190
C       -0.1675481679   -1.9829564619   -1.9441145741
C        4.4567678778   -1.0135972589   -0.1077963242
C        4.3508226631    1.1733590551   -1.1220034704
C        0.1299580277   -2.6619605584    0.7444981586
C        0.0881951082   -0.9902204376   -0.9966081674
C        3.2421409379   -0.7814788877    0.5461237989
C        3.1351899425    1.4141876197   -0.4809388769
C        0.2435640509   -1.3230170380    0.3558483535
C        2.5756656939    0.4357459630    0.3523225145
C       -0.8092029263    0.4950147314    1.7608161715
C        0.4754414930   -0.2444382464    1.3969662935
O        1.3991695069    0.7799392678    0.9743356225
H       -0.4794068612   -4.0940470258   -2.2873512006
H        5.9612996366   -0.2344962713   -1.4487510144
H       -0.2193184158   -4.6954663506    0.1148378684
H       -0.2732687098   -1.7150625415   -2.9923361043
H        4.9646006095   -1.9631906717    0.0415689549
H        4.7751824894    1.9383201578   -1.7675440300
H        0.2562708393   -2.9307450735    1.7919164348
H        0.1893296628    0.0461331612   -1.3071352710
H        2.8239277271   -1.5470399186    1.1890589492
H        2.6028545808    2.3521324451   -0.6119392196
H       -0.6022445608    1.2639253746    2.5109938251
H       -1.5444105005   -0.2078284598    2.1627224267
H       -1.2343014311    0.9729343189    0.8736053593
H        0.8795449924   -0.7188278726    2.3027453784
29   
torsion grid (-30,)
C       -0.1333920597   -3.2695582124   -1.5628911044
C        4.8870633631   -0.1316814044   -1.0575027799
C       -0.0228479246   -3.6308143548   -0.2174047152
C       -0.0512415046   -1.9198980756   -1.9266115828
C        4.3974713170   -1.0887968966   -0.1629763361
C        4.2191955734    1.0916774569   -1.1849688962
C        0.1765819479   -2.6464594868    0.7564708459
C        0.1364429674   -0.9404614811   -0.9508043714
C        3.2529681364   -0.8358522536    0.5982544694
C        3.0678944237    1.3499372299   -0.4377243767
C        0.2583116747   -1.2964586498    0.4002848985
C        2.5798038544    0.3844258491    0.4513659037
C       -0.8370797384    0.5839970171    1.6928064593
C        0.4299861495   -0.2362212091    1.4687589772
O        1.4735048501    0.7327895095    1.1905678768
H       -0.2783748307   -4.0325185754   -2.3233899626
H        5.7777273478   -0.3352817648   -1.6455645501
H       -0.0831712585   -4.6764323226    0.0737153592
H       -0.1297757102   -1.6331169791   -2.9721716744
H        4.9103003018   -2.0408321977   -0.0509108641
H        4.5905187249    1.8464671174   -1.8737692430
H        0.2760324807   -2.9333710413    1.8017541037
H        0.2119774103    0.1043213074   -1.2396929161
H        2.8868282916   -1.5833230864    1.2934877060
H        2.5335676306    2.2914706759   -0.5290245433
H       -0.6644527446    1.3372922441    2.4670469542
H       -1.6562829815   -0.0694760359    2.0069321848
H       -1.1308087781    1.0911308804    0.7693369960
H        0.6935585495   -0.7417596559    2.4080861616
29   
torsion grid (-15,)
C       -0.0207312740   -3.2757367321   -1.5419361420
C        4.7816067801   -0.1373776743   -1.1374893864
C        0.0420127652   -3.6389451997   -0.1941441224
C        0.0515770400   -1.9235503826   -1.8985073357
C        4.3501284249   -1.1300167480   -0.2507380058
C        4.1158147303    1.0928550826   -1.1674837699
C        0.1851558517   -2.6537615502    0.7889219610
C        0.1825228722   -0.9444793543   -0.9136088545
C        3.2642465750   -0.9031799358    0.5984023374
C        3.0198697502    1.3236325293   -0.3316912762
C        0.2572985702   -1.3006007209    0.4416249102
C        2.5889778028    0.3238999144    0.5483918841
C       -0.8285680552    0.6737020214    1.6003463045
C        0.3867293628   -0.2461693226    1.5196591467
O        1.5421093787    0.6338509080    1.3858551596
H       -0.1223505549   -4.0385391145   -2.3096153105
H        5.6283328740   -0.3192617820   -1.7937698886
H       -0.0126783345   -4.6861567317    0.0922778956
H        0.0099815469   -1.6344895325   -2.9455147111
H        4.8642579685   -2.0872255448   -0.2140389735
H        4.4447352770    1.8743306947   -1.8480862356
H        0.2478312989   -2.9422974724    1.8364038232
H        0.2514042240    0.1010416047   -1.2007089495
H        2.9393945544   -1.6734245660    1.2898606196
H        2.4871420989    2.2704286320   -0.3460114095
H       -0.6829960666    1.4156492971    2.3907841201
H       -1.7284106292    0.0907642159    1.8198101382
H       -0.9771087651    1.1993736608    0.6527573779
H        0.5017128872   -0.7617466316    2.4815140770
29   
torsion grid (0,)
C        0.0538680440   -3.2889064870   -1.5021633574
C        4.6736918831   -0.1155438278   -1.1922192590
C        0.0796716614   -3.6527336687   -0.1533505550
C        0.1206588177   -1.9356422565   -1.8549754032
C        4.3076748604   -1.1541578071   -0.3282990122
C        4.0047674853    1.1106655206   -1.1164021138
C        0.1806360062   -2.6663581904    0.8335468984
C        0.2104652229   -0.9558705023   -0.8661463525
C        3.2815669843   -0.9756392241    0.6022331994
C        2.9676773988    1.2926339262   -0.1965981976
C        0.2475052728   -1.3109463259    0.4912876993
C        2.6007938960    0.2478256049    0.6593730561
C       -0.7685910149    0.7671903569    1.5342273900
C        0.3568853450   -0.2639055858    1.5777711178
O        1.6110914435    0.4927173720    1.5852976847
H       -0.0160690428   -4.0518262939   -2.2732974340
H        5.4746779839   -0.2592871176   -1.9124125147
H        0.0274971803   -4.7006423758    0.1309888437
H        0.1076642204   -1.6456144250   -2.9024289385
H        4.8263682558   -2.1084577115   -0.3748741475
H        4.2857339349    1.9268200786   -1.7775576927
H        0.2143045411   -2.9551240136    1.8821719633
H        0.2765467933    0.0891204116   -1.1543793207
H        3.0014977123   -1.7787429968    1.2760571749
H        2.4341449378    2.2365700114   -0.1263806574
H       -0.6431146737    1.4878905643    2.3472439536
H       -1.7398189066    0.2736233803    1.6422440901
H       -0.7605852252    1.3127148626    0.5861972037
H        0.3261321373   -0.7771736131    2.5452161333
29   
torsion grid (15,)
C        0.1084908852   -3.3146518315   -1.4852470490
C        4.5763418875   -0.0734010597   -1.2482915907
C        0.1070322611   -3.6663068789   -0.1327450506
C        0.1692048101   -1.9639972172   -1.8472981373
C        4.2835357804   -1.1540240840   -0.4079434369
C        3.8897200310    1.1339793963   -1.0833663319
C        0.1738866737   -2.6695312322    0.8460019889
C        0.2272355049   -0.9739172868   -0.8657730021
C        3.3098786848   -1.0364869885    0.5863310961
C        2.9072993639    1.2556157525   -0.0954720939
C        0.2353381182   -1.3150060147    0.4955591225
C        2.6118264206    0.1685618386    0.7348405475
C       -0.6615815560    0.8783654564    1.4203494385
C        0.3361359150   -0.2669114712    1.5826972232
O        1.6689595539    0.3313213337    1.7281806540
H        0.0631572684   -4.0846448326   -2.2512197691
H        5.3361750090   -0.1702222273   -2.0192393703
H        0.0579891809   -4.7120152354    0.1601917950
H        0.1768976444   -1.6827003811   -2.8971703829
H        4.8170930070   -2.0938436149   -0.5257475446
H        4.1164351589    1.9822503966   -1.7246462371
H        0.1854517199   -2.9485454360    1.8976863490
H        0.2898374706    0.0675293305   -1.1655650156
H        3.0781456446   -1.8708159632    1.2406125943
H        2.3646910480    2.1861234632    0.0475320624
H       -0.5503208145    1.5841543920    2.2481926003
H       -1.6871172433    0.4944334091    1.4151367519
H       -0.4920419673    1.4203962230    0.4855254833
H        0.1578946685   -0.7557214516    2.5451609455
29   
torsion grid (30,)
C        0.1053037461   -3.3888649506   -1.4437190048
C        4.5094083312    0.0337146792   -1.2664482852
C        0.0807009111   -3.7124773948   -0.0838963318
C        0.1788566320   -2.0469943658   -1.8328025341
C        4.2605662932   -1.1145422305   -0.5054126508
C        3.8142467927    1.2138847953   -0.9829891093
C        0.1352227853   -2.6961844860    0.8745234923
C        0.2277599195   -1.0366097894   -0.8706712674
C        3.3185832266   -1.0897509767    0.5254161315
C        2.8674295123    1.2440207813    0.0461780302
C        0.2097818699   -1.3488132152    0.4968873096
C        2.6134064485    0.0892191455    0.7951076722
C       -0.5289335830    0.9559014221    1.3048832251
C        0.3205489950   -0.2860583568    1.5703254886
O        1.7012593614    0.1382463557    1.8311218144
H        0.0673623962   -4.1744938630   -2.1940838019
H        5.2432553114    0.0101886298   -2.0677410229
H        0.0210856216   -4.7516578688    0.2296629572
H        0.2047284604   -1.7874278320   -2.8879843110
H        4.8006319444   -2.0341542935   -0.7161979360
H        4.0100011961    2.1138171283   -1.5609094998
H        0.1279439580   -2.9525198532    1.9320193505
H        0.3026292660   -0.0028435920   -1.1926160890
H        3.1127181359   -1.9761161109    1.1169329473
H        2.3271629167    2.1558883782    0.2846257312
H       -0.4238506149    1.6571836041    2.1372931862
H       -1.5843594746    0.6827841734    1.2013234301
H       -0.2173369223    1.4669226847    0.3896773138
H        0.0132715157   -0.7257699738    2.5227974932
29   
torsion grid (45,)
C        0.0099456052   -3.5438714228   -1.3408289524
C        4.5056285083    0.2607048151   -1.2671444496
C       -0.0793616906   -3.7958150160    0.0319003739
C        0.1868791913   -2.2319199037   -1.7929236919
C        4.2217330099   -0.9830656759   -0.6911661605
C        3.8540690554    1.4053233034   -0.7958304277
C        0.0107347037   -2.7379530148    0.9411850145
C        0.2732190465   -1.1778401806   -0.8808946219
C        3.2868725045   -1.0873201112    0.3414707886
C        2.9169505402    1.3078549626    0.2381072760
C        0.1859122840   -1.4197299995    0.4980168490
C        2.6281605495    0.0591298647    0.8018176022
C       -0.3887187410    0.9821706097    1.1452662700
C        0.3317224818   -0.3116698247    1.5210169731
O        1.7311515131   -0.0312046594    1.8492470493
H       -0.0576915081   -4.3627747918   -2.0525636014
H        5.2335246315    0.3378566670   -2.0705151604
H       -0.2184016216   -4.8116736396    0.3930859559
H        0.2648926336   -2.0295881186   -2.8580212284
H        4.7274287335   -1.8764850175   -1.0487083256
H        4.0787516347    2.3772146617   -1.2283425517
H       -0.0483946053   -2.9379305115    2.0091320168
H        0.4297342982   -0.1687913216   -1.2495479632
H        3.0511060068   -2.0473668325    0.7896249571
H        2.4166336066    2.1906971365    0.6251662051
H       -0.2689543386    1.7158503646    1.9473837992
H       -1.4565287393    0.7908031701    0.9967133784
H        0.0082887196    1.4164070312    0.2240445769
H       -0.0625743532   -0.6682591004    2.4756591651
29   
torsion grid (60,)
C       -1.2133789337   -2.0162312784   -2.2109168231
C        4.2932453938    1.6549713206   -0.8848859833
C       -1.7207981716   -1.4679699740   -1.0307148611
C        0.0955488987   -2.5123685005   -2.2316686715
C        5.0877989063    0.6099515136   -0.3956899734
C        2.9081381362    1.5816681323   -0.7275986092
C       -0.9249898952   -1.4112853578    0.1195561817
C        0.8851893818   -2.4593098542   -1.0826214039
C        4.5035120217   -0.4840785064    0.2397257063
C        2.3069027534    0.4882962499   -0.0919828105
C        0.3865677891   -1.9022790886    0.1050713420
C        3.1094850536   -0.5524251935    0.3968630799
C        0.8188581085   -0.9790020924    2.4876312492
C        1.2704538762   -1.8937326755    1.3467659185
O        2.6647508199   -1.6854015132    1.0352128727
H       -1.8288372452   -2.0551208556   -3.1059640884
H        4.7475057645    2.5082143535   -1.3807943522
H       -2.7355974459   -1.0790175748   -1.0024846962
H        0.5022114833   -2.9369511421   -3.1460255285
H        6.1685420221    0.6466629339   -0.5082111304
H        2.2749883139    2.3802851754   -1.1063283948
H       -1.3365263025   -0.9714785101    1.0227393244
H        1.9052728875   -2.8315476038   -1.1058797795
H        5.1072608693   -1.3008215518    0.6251833451
H        1.2290850614    0.4538358542   -0.0085475031
H        1.5696323194   -1.0092950323    3.2815107063
H       -0.1279281409   -1.3320336091    2.9068388527
H        0.6922369030    0.0594927532    2.1740137295
H        1.2878076237   -2.9166688697    1.7376834702
29   
torsion grid (75,)
C       -1.4289594692   -2.1259344609   -2.1456016971
C        4.4003734571    1.7505798311   -0.6714826151
C       -1.8532705371   -1.5441575856   -0.9486471752
C       -0.1215459621   -2.6163893569   -2.2456732035
C        5.1679955274    0.7238298514   -0.1077011252
C        3.0135179621    1.6004231516   -0.7443181113
C       -0.9778705316   -1.4501872966    0.1397223209
C        0.7485887408   -2.5257665636   -1.1582914220
C        4.5548526677   -0.4289300071    0.3824859807
C        2.3862022498    0.4450957941   -0.2639503648
C        0.3319809902   -1.9380793663    0.0460631299
C        3.1611294156   -0.5737196972    0.3094540751
C        0.9624120270   -0.8910409863    2.3321952174
C        1.3010289364   -1.8881038228    1.2227471007
O        2.6730351791   -1.7683392670    0.7873040176
H       -2.1067704299   -2.1938994471   -2.9925941999
H        4.8770189394    2.6506127659   -1.0498100143
H       -2.8653411939   -1.1572461329   -0.8596267887
H        0.2213388620   -3.0658753110   -3.1742361879
H        6.2488141145    0.8223135775   -0.0434197680
H        2.4040628802    2.3843080546   -1.1872966674
H       -1.3260935896   -0.9848339480    1.0567710495
H        1.7677286706   -2.8910842681   -1.2425777997
H        5.1358595267   -1.2313830399    0.8281062158
H        1.3127433006    0.3414244962   -0.3592777658
H        1.7730685608   -0.8873562249    3.0657776090
H        0.0470676670   -1.1981609189    2.8461264889
H        0.8260241099    0.1273407807    1.9630807828
H        1.3064113671   -2.8861451133    1.6745172429
29   
torsion grid (90,)
C       -1.6493125852   -2.2608902816   -2.0553711352
C        4.5262149094    1.8120444097   -0.4531226927
C       -2.0035967491   -1.6967259479   -0.8272919656
C       -0.3292594424   -2.6763015784   -2.2643522753
C        5.2225513112    0.7809253313    0.1876819743
C        3.1746024897    1.6341381430   -0.7655208187
C       -1.0464397694   -1.5485658434    0.1829649680
C        0.6238865117   -2.5310586215   -1.2543038375
C        4.5726927873   -0.4089278335    0.5237298872
C        2.5166916825    0.4424783989   -0.4459562521
C        0.2770006633   -1.9645193193   -0.0183286560
C        3.2181285218   -0.5789649493    0.2112422773
C        1.0792296796   -0.7842308262    2.1416159026
C        1.3289485483   -1.8570325638    1.0813326775
O        2.6637278516   -1.8013268778    0.5223648269
H       -2.3909952723   -2.3720351386   -2.8421863094
H        5.0310350035    2.7395721806   -0.7089401541
H       -3.0244543193   -1.3653327254   -0.6540361399
H       -0.0405436846   -3.1109573199   -3.2181463498
H        6.2741681218    0.9043537197    0.4342757076
H        2.6254023773    2.4235257005   -1.2728010047
H       -1.3427665665   -1.0993950409    1.1261303965
H        1.6509843619   -2.8393533275   -1.4226238157
H        5.0959392763   -1.2166854445    1.0274856418
H        1.4757255476    0.3034678266   -0.7169001012
H        1.9481335586   -0.7190129047    2.8022092890
H        0.2163194151   -1.0633867489    2.7525690216
H        0.8939119950    0.2029198649    1.7140459709
H        1.3482831543   -2.8236898091    1.5978810001
29   
torsion grid (105,)
C       -1.8513059350   -2.5041557389   -1.9008105689
C        4.8062315336    1.6894008705   -0.2953353625
C       -2.1750613734   -2.3500832645   -0.5480313822
C       -0.5153001524   -2.4140412891   -2.2999280496
C        5.3376879107    0.6234592170    0.4390635125
C        3.4982985597    1.6026979415   -0.7842769757
C       -1.1709240885   -2.1002016209    0.3901082492
C        0.4897357918   -2.1669775830   -1.3581998399
C        4.5658468746   -0.5131985092    0.6943399114
C        2.7226716946    0.4645865126   -0.5455570765
C        0.1725877447   -1.9989757779   -0.0047535724
C        3.2562670536   -0.5922809742    0.2063258241
C        0.9956940773   -0.5123560274    1.9132593146
C        1.2552359885   -1.7405670415    1.0362918279
O        2.5689491386   -1.7654318033    0.4289353835
H       -2.6317216898   -2.6969005792   -2.6324424609
H        5.4055517923    2.5749112248   -0.4885890172
H       -3.2098996944   -2.4248563061   -0.2232455563
H       -0.2504877738   -2.5397798429   -3.3469301491
H        6.3544271011    0.6776964044    0.8200799416
H        3.0792244094    2.4209683247   -1.3646485099
H       -1.4410183489   -1.9889236229    1.4376568565
H        1.5275237466   -2.1139261282   -1.6691414745
H        4.9603196293   -1.3486806510    1.2656205621
H        1.7161444866    0.3911492784   -0.9449353886
H        1.8421120683   -0.3425209514    2.5849522247
H        0.1089322348   -0.6913693593    2.5267526960
H        0.8251034791    0.3936304580    1.3297094628
H        1.2823126581   -2.6131683823    1.6998976667
29   
torsion grid (120,)
C       -1.9903777860   -2.6287708389   -1.7884784234
C        5.0060426359    1.7093689016   -0.1282348838
C       -2.1798588411   -2.6561804828   -0.4017493541
C       -0.7364223852   -2.2899586472   -2.3034810618
C        5.3922103776    0.6053556889    0.6396444989
C        3.7670125301    1.6982185028   -0.7784606567
C       -1.1242431812   -2.3377843977    0.4551864097
C        0.3199575918   -1.9722399301   -1.4419764348
C        4.5421821174   -0.4971654558    0.7669618952
C        2.9159457861    0.5954832742   -0.6641587708
C        0.1342445536   -1.9836694276   -0.0549847243
C        3.3015859011   -0.5011380314    0.1192220804
C        0.9634984489   -0.3095779501    1.6596627094
C        1.2535187132   -1.6101362522    0.9051786646
O        2.5238279811   -1.6353860592    0.2076839257
H       -2.8097834976   -2.8778317657   -2.4578505634
H        5.6659364077    2.5673503778   -0.2239387467
H       -3.1477956475   -2.9295805397    0.0109434429
H       -0.5752691651   -2.2788551652   -3.3787269366
H        6.3557353859    0.6021140340    1.1431123176
H        3.4632342141    2.5478849645   -1.3848838495
H       -1.2817709024   -2.3717277766    1.5316014063
H        1.2997517619   -1.7360331094   -1.8429605405
H        4.8254634633   -1.3638594378    1.3575635414
H        1.9608595032    0.5776354286   -1.1806621028
H        1.7951402988   -0.0461037125    2.3193773970
H        0.0711136594   -0.4550955235    2.2744876541
H        0.7730107982    0.5268522073    0.9844531627
H        1.3402736656   -2.4113155926    1.6496421251
29   
torsion grid (135,)
C       -2.1250580059   -2.7633658243   -1.6405736893
C        5.1483411026    1.6890283351    0.0598284897
C       -2.1391175088   -2.9230368031   -0.2501734372
C       -0.9909794999   -2.2296259152   -2.2594118134
C        5.3493087058    0.5700145095    0.8757167340
C        4.0359220845    1.7363625698   -0.7876711977
C       -1.0296718316   -2.5440004545    0.5090944912
C        0.1188163497   -1.8496875523   -1.4966552577
C        4.4411855351   -0.4926682697    0.8506400102
C        3.1251546841    0.6762307635   -0.8181261347
C        0.1057195206   -1.9957961531   -0.1049733120
C        3.3257273200   -0.4366973496    0.0070753639
C        0.9445441785   -0.1943102840    1.4306316639
C        1.2671728505   -1.5320545407    0.7575059536
O        2.4681101506   -1.5158698992   -0.0557716055
H       -2.9854881014   -3.0608790526   -2.2344847092
H        5.8550938286    2.5142178531    0.0801733320
H       -3.0110153614   -3.3481349850    0.2407245707
H       -0.9659780464   -2.1144668203   -3.3403148307
H        6.2154505602    0.5226916362    1.5310178932
H        3.8771748004    2.5992566785   -1.4296052877
H       -1.0463542120   -2.6798996606    1.5891908149
H        1.0086368258   -1.4599132668   -1.9794165521
H        4.5871387642   -1.3726991209    1.4711557372
H        2.2606756949    0.7020517062   -1.4754826499
H        1.7684768742    0.1473356887    2.0629643255
H        0.0587000669   -0.3257717782    2.0583093705
H        0.7228698234    0.5811755342    0.6929590500
H        1.4410207514   -2.2781344735    1.5437911992
29   
torsion grid (150,)
C       -2.2336726920   -2.8387167591   -1.4760806202
C        5.3092277179    1.6342281295    0.1773410102
C       -1.9710192347   -3.2720583313   -0.1725816169
C       -1.3356808096   -1.9720902735   -2.1088097360
C        5.1273168761    0.6609940476    1.1668563985
C        4.4917975676    1.6233708261   -0.9577939398
C       -0.8193732784   -2.8372298452    0.4902463420
C       -0.1870222650   -1.5360406051   -1.4426369750
C        4.1375846733   -0.3149638946    1.0260699128
C        3.4911567788    0.6570572390   -1.0997289146
C        0.0775975619   -1.9619934665   -0.1351105627
C        3.3112129681   -0.3104896484   -0.1059763938
C        0.8974169261   -0.1237836568    1.3364919853
C        1.2735599242   -1.4350998828    0.6348503491
O        2.3610677399   -1.2863245199   -0.3110693303
H       -3.1252243450   -3.1790685072   -1.9965541466
H        6.0827133891    2.3892580894    0.2881071722
H       -2.6570738292   -3.9534629980    0.3242290785
H       -1.5287199147   -1.6387764765   -3.1255553506
H        5.7642451454    0.6554925890    2.0478947291
H        4.6283337231    2.3722239332   -1.7339294871
H       -0.6164055176   -3.1845336589    1.5018137618
H        0.5186425150   -0.8775995095   -1.9390149727
H        4.0045376954   -1.0827157403    1.7837066790
H        2.8473567941    0.6373064722   -1.9745239172
H        1.7016288541    0.2534103348    1.9719745901
H        0.0156474526   -0.2978770535    1.9596334526
H        0.6459710664    0.6434610996    0.5978324400
H        1.5727795532   -2.1757632582    1.3879083883
29   
torsion grid (165,)
C       -2.2514743880   -2.9806616825   -1.3916686105
C        5.4711002167    1.5148541488    0.2573439789
C       -1.8672054929   -3.4197375883   -0.1207193238
C       -1.4812385687   -2.0164965814   -2.0511147354
C        5.1043110239    0.5737851405    1.2252221313
C        4.7349845480    1.6000484624   -0.9298101334
C       -0.7211390382   -2.8941584861    0.4833909253
C       -0.3384652102   -1.4891332788   -1.4433790561
C        4.0142350107   -0.2753933828    1.0147059804
C        3.6368350051    0.7634901117   -1.1440724409
C        0.0482823774   -1.9224997277   -0.1687733296
C        3.2721902023   -0.1741241525   -0.1705985094
C        0.7888381658   -0.0466840188    1.2997890107
C        1.2362507030   -1.3046328396    0.5419162685
O        2.2252951818   -1.0139160723   -0.4699351871
H       -3.1389854660   -3.3908669603   -1.8666788822
H        6.3208968720    2.1707132460    0.4248965919
H       -2.4537091378   -4.1752415534    0.3959816188
H       -1.7697473387   -1.6770852023   -3.0429099302
H        5.6736773759    0.4920998804    2.1477823464
H        5.0116856599    2.3251150803   -1.6910780501
H       -0.4224514545   -3.2459589673    1.4693016749
H        0.2673692677   -0.7513586765   -1.9596590118
H        3.7465541158   -1.0151123832    1.7635851336
H        3.0538926804    0.8198334721   -2.0589763878
H        1.6033595136    0.4078770939    1.8678239106
H       -0.0132103058   -0.3123369584    1.9944175142
H        0.3980805315    0.6924635337    0.5937448424
H        1.6516897392   -2.0345540287    1.2490565534
29   
torsion grid (180,)
C       -2.2135037535   -3.0951303386   -1.3654245694
C        5.6143601138    1.3544329502    0.2646043379
C       -1.7274862254   -3.5492728722   -0.1353319440
C       -1.5766045678   -2.0272430434   -2.0070921974
C        5.0872473978    0.5068055458    1.2421612738
C        4.9348585853    1.4990558013   -0.9515854369
C       -0.6132419798   -2.9366674714    0.4460126782
C       -0.4661244286   -1.4124985495   -1.4220733391
C        3.8954940264   -0.1922688401    1.0202354113
C        3.7427758752    0.8126719052   -1.1823886069
C        0.0228506869   -1.8627750467   -0.1888419149
C        3.2165211407   -0.0347993919   -0.1965023900
C        0.6576229507    0.0102256511    1.3442844849
C        1.1765091888   -1.1618157528    0.4993142380
O        2.0710947523   -0.7104907915   -0.5351566276
H       -3.0764350687   -3.5725811333   -1.8225451589
H        6.5399659607    1.8935687364    0.4455680847
H       -2.2098797152   -4.3837650134    0.3672594250
H       -1.9445972737   -1.6740202079   -2.9672196552
H        5.6061232376    0.3801975115    2.1891178071
H        5.3324784839    2.1532332738   -1.7234651665
H       -0.2349224177   -3.3005054482    1.3996778240
H        0.0349784126   -0.5915562289   -1.9249961424
H        3.5122415114   -0.8542267628    1.7895850652
H        3.2043841597    0.9151235290   -2.1202661422
H        1.4643783900    0.5285206713    1.8677214407
H       -0.0573266404   -0.3599962403    2.0849820134
H        0.1411047593    0.7268741179    0.6987736968
H        1.6978980225   -1.8850925822    1.1389843491
