12   
torsion grid (-165,)
C       -1.6418955203    1.2967091342    1.6363946571
C        1.6679403098   -0.6471118409   -1.3464944557
N        0.0735286583   -0.0418266791    0.1976465487
N        0.3899790852   -0.9458485778   -0.6574939148
O       -0.2422202064   -1.9978854309   -0.9231492902
S       -1.4234731169   -0.3766411450    0.9527625420
Br       1.3373299731   -0.4361996536   -3.2573450943
Br       2.9754478034   -2.0379164067   -0.9487162630
H       -2.5648006252    1.2660453170    2.2210940455
H       -1.7462892277    2.0243193059    0.8303333519
H       -0.8093714542    1.5659951781    2.2888913774
H        2.0460237204    0.2923036226   -0.9630583708
12   
torsion grid (-150,)
C       -1.6482948291    1.3002404226    1.5742607277
C        1.6670118343   -0.6431054871   -1.3146524534
N        0.1558279615   -0.1353230798    0.3414427005
N        0.3961617696   -0.9627879363   -0.6119238615
O       -0.2744950552   -1.9627606823   -0.9568815533
S       -1.3447796925   -0.4371251536    1.1194062838
Br       1.2757528434   -0.2212742119   -3.1777007614
Br       2.9263402458   -2.1159646197   -1.1124248474
H       -2.5494925731    1.2985850625    2.1928815158
H       -1.8220139511    1.8963679687    0.6774692868
H       -0.8153309822    1.7085248579    2.1500462551
H        2.0955118279    0.2365656829   -0.8510581587
12   
torsion grid (-135,)
C       -1.6478090701    1.2884958515    1.5050842477
C        1.6626991678   -0.6356033637   -1.2811637356
N        0.2388349268   -0.2152450417    0.4713330262
N        0.3956860214   -0.9652443770   -0.5623657918
O       -0.3209831540   -1.8987836947   -0.9773995514
S       -1.2544879963   -0.4793462965    1.3007292153
Br       1.2246827054   -0.0154011681   -3.0760306301
Br       2.8513856457   -2.1767765044   -1.2685772378
H       -2.5301986548    1.3300770279    2.1492375664
H       -1.8805124736    1.7331227164    0.5365449879
H       -0.8243488072    1.8220936285    1.9844949768
H        2.1472510884    0.1745540456   -0.7510219396
12   
torsion grid (-120,)
C       -2.6624497180    0.6016855186   -0.2564356332
C        1.6997679932   -0.5703223084   -1.4074087441
N       -0.2356241326   -0.4345733505   -0.1802702037
N        0.3487267090   -1.1393634034   -1.0863254598
O       -0.0217226528   -2.1768094817   -1.6630606635
S       -1.8501555719   -0.9642435053    0.2073892946
Br       1.7085648745    0.0021152086   -3.2690671357
Br       3.0787749517   -1.8762077357   -0.9927656979
H       -3.7019821254    0.5110805618    0.0703597424
H       -2.6300795967    0.7369375337   -1.3386478694
H       -2.1958749872    1.4487342812    0.2513624417
H        1.8509132783    0.3008008813   -0.7825310268
12   
torsion grid (-105,)
C       -2.6423845792    0.5452751512   -0.3156748249
C        1.7009132731   -0.5705535878   -1.3836339088
N       -0.1634204644   -0.4009325845   -0.0550689303
N        0.3227637569   -1.0731771079   -1.0413794484
O       -0.1467898242   -2.0162115841   -1.6954970115
S       -1.7828044327   -0.8878466439    0.4196150237
Br       1.6643681291    0.1741358594   -3.1815028721
Br       2.9884743861   -2.0074947148   -1.1625949573
H       -3.6789404985    0.4803259968    0.0264404081
H       -2.6153503345    0.4918971180   -1.4055701984
H       -2.2029306434    1.4809412902    0.0367373209
H        1.9449602540    0.2234750076   -0.6892715564
12   
torsion grid (-90,)
C       -2.6348752293    0.4680753552   -0.3610728809
C        1.7126557381   -0.5809669708   -1.3703385451
N       -0.0785809957   -0.3185375263    0.0451389444
N        0.3006241239   -0.9618040151   -1.0054472758
O       -0.3004991320   -1.7756798664   -1.7212672457
S       -1.6863929888   -0.7576176484    0.6065943253
Br       1.7017511306    0.3034516603   -3.1027823363
Br       2.8357998444   -2.1640484707   -1.3096275965
H       -3.6642713092    0.3990988716    0.0010448820
H       -2.6092191637    0.2308989017   -1.4266696511
H       -2.2534403781    1.4740790689   -0.1759216000
H        2.0653073819    0.1228848401   -0.6270519758
12   
torsion grid (-75,)
C       -2.6209373884    0.3855066065   -0.4064866988
C        1.7118524422   -0.5899039441   -1.3573137246
N       -0.0044409807   -0.2477756482    0.1370335382
N        0.2854071948   -0.8502974058   -0.9650990686
O       -0.4305886346   -1.5343574047   -1.7154953416
S       -1.6015002858   -0.6052546545    0.7429814544
Br       1.7470042407    0.4240126783   -3.0181068294
Br       2.6602738941   -2.2828596980   -1.4596706555
H       -3.6393808438    0.3323143669   -0.0124126255
H       -2.5955937693   -0.0276045830   -1.4166397827
H       -2.2852035236    1.4239304657   -0.3981879264
H        2.1619666765    0.0121234210   -0.5780032951
12   
torsion grid (-60,)
C       -2.6105665688    0.3156382750   -0.4490234087
C        1.7054125283   -0.5924071094   -1.3374505600
N        0.0449155347   -0.2394339266    0.2137869500
N        0.2772240841   -0.7768351241   -0.9346086364
O       -0.5058788180   -1.3545419066   -1.7143777264
S       -1.5531133474   -0.4624073335    0.8256184428
Br       1.7913514721    0.5576956672   -2.9079544365
Br       2.5230221028   -2.3356414501   -1.6122026347
H       -3.6006283645    0.3778769264    0.0108468114
H       -2.6507961298   -0.2788742608   -1.3616730517
H       -2.2498063092    1.3246641739   -0.6573565954
H        2.2177228380   -0.0958997311   -0.5230061097
12   
torsion grid (-45,)
C       -2.6290628347    0.2463712115   -0.4676602849
C        1.7181680190   -0.5903712996   -1.3204753121
N        0.0803821770   -0.2465990142    0.2510146879
N        0.2826393267   -0.7082427774   -0.9324957648
O       -0.5350568768   -1.1864526388   -1.7506128543
S       -1.5123226569   -0.3200886314    0.8697502880
Br       1.8874131287    0.6753784331   -2.7946004120
Br       2.4220840636   -2.3552754276   -1.7412828970
H       -3.5690956259    0.4563313891    0.0511798377
H       -2.7682520116   -0.5080917950   -1.2390526386
H       -2.2503848274    1.1733701015   -0.9018275255
H        2.2623471406   -0.1964953510   -0.4713380798
12   
torsion grid (-30,)
C       -2.6731791684    0.1928013962   -0.4606887642
C        1.7489351335   -0.6062649420   -1.3088950500
N        0.1066953688   -0.2306614224    0.2431094549
N        0.3009262846   -0.6257498961   -0.9619049002
O       -0.5317551377   -0.9894627938   -1.8284593182
S       -1.4666994563   -0.1544285095    0.8778603622
Br       2.0614245693    0.7203389294   -2.7049906069
Br       2.3214001243   -2.3973278188   -1.8172548412
H       -3.5828771717    0.4461374070    0.0934386087
H       -2.8369166283   -0.6666116015   -1.1054752571
H       -2.3616776675    1.0579334041   -1.0462253681
H        2.3025827716   -0.3068699526   -0.4279152755
12   
torsion grid (-15,)
C       -2.7174605465    0.1396775961   -0.4421401581
C        1.7772184740   -0.6287372213   -1.3010407319
N        0.1232610522   -0.1890740749    0.2157921519
N        0.3233028292   -0.5239658578   -1.0034210314
O       -0.5073106900   -0.7555657369   -1.9196927189
S       -1.4262993126    0.0142194797    0.8597281576
Br       2.2649694616    0.7090286327   -2.6344185342
Br       2.1976169189   -2.4485384221   -1.8597655094
H       -3.6122118940    0.3818392512    0.1415931355
H       -2.8537739056   -0.7958241690   -0.9779103234
H       -2.5061345620    0.9529755130   -1.1340940350
H        2.3256811969   -0.4162007904   -0.3920313584
12   
torsion grid (0,)
C       -2.7371276866    0.0840028014   -0.4259015399
C        1.7848571886   -0.6514958134   -1.2966803617
N        0.1332016547   -0.1364824528    0.1971485480
N        0.3394349428   -0.4216162114   -1.0325974490
O       -0.4797194920   -0.5225809222   -1.9835493130
S       -1.3976349232    0.1849983550    0.8298285206
Br       2.4345413828    0.6844062289   -2.5610762186
Br       2.0497749274   -2.4804489308   -1.9189971951
H       -3.6270712920    0.3154075961    0.1697111061
H       -2.8226346031   -0.9142965494   -0.8480648252
H       -2.6130972223    0.8258839975   -1.2111126651
H        2.3243341452   -0.5279438988   -0.3661095626
12   
torsion grid (15,)
C       -2.7318758866    0.0220289293   -0.4179991594
C        1.7722482611   -0.6695374387   -1.2923788849
N        0.1359463897   -0.0846144185    0.1942068006
N        0.3493519660   -0.3105449255   -1.0475815832
O       -0.4480804694   -0.2713163340   -2.0200365881
S       -1.3859652057    0.3452846349    0.7910228848
Br       2.5753533253    0.6378786980   -2.4951499264
Br       1.8735202460   -2.4943558111   -1.9741230021
H       -3.6294531682    0.2408432992    0.1705969985
H       -2.7470633374   -1.0218996166   -0.7259593327
H       -2.6742220362    0.6775695291   -1.2827460132
H        2.2990989375   -0.6315023459   -0.3472531494
12   
torsion grid (30,)
C       -1.0160433448   -1.2267272387    2.2061534222
C        1.6745681757   -0.5387512612   -1.4270765014
N       -0.2413838035    0.0103733434   -0.2982111084
N        0.6368686842   -0.9157787348   -0.4278061630
O        0.7252351413   -2.0221386182    0.1593231262
S       -1.5300566493   -0.1758631969    0.7921693524
Br       1.7050100057   -1.8544839168   -2.8630331763
Br       3.3965986461   -0.3473727743   -0.5300842787
H       -1.8270035062   -1.0766904130    2.9263056740
H       -0.0845509458   -0.8621489480    2.6394480114
H       -0.9266176041   -2.2750027788    1.9336253058
H        1.4039886050    0.4214106241   -1.8479851360
12   
torsion grid (45,)
C       -0.9676359646   -1.1765471862    2.2079620823
C        1.6730272657   -0.5470186729   -1.3915431791
N       -0.2672139012   -0.0062470652   -0.2901193752
N        0.5742836878   -0.9620427568   -0.4719331488
O        0.5912920490   -2.1119918319    0.0219850604
S       -1.6090822642   -0.3130377214    0.7248740155
Br       1.7156424339   -1.7395087712   -2.9289483361
Br       3.3565717858   -0.5016943983   -0.4079608685
H       -1.7836466975   -1.0898314715    2.9315273666
H       -0.0935578977   -0.6508920670    2.5964196457
H       -0.7297156743   -2.2195515766    2.0100482451
H        1.4566485816    0.4551896058   -1.7394829796
12   
torsion grid (60,)
C       -0.9465550790   -1.1101725815    2.2332141009
C        1.6785137622   -0.5637761395   -1.3795381885
N       -0.2548461544   -0.0379459713   -0.2509105882
N        0.5477293850   -1.0127425999   -0.5101865431
O        0.5169856902   -2.1942902220   -0.1126488578
S       -1.6493974640   -0.4540509257    0.6763611627
Br       1.6775327773   -1.6076760668   -3.0206090180
Br       3.3490612926   -0.6896332009   -0.3845318898
H       -1.7984154675   -1.1808768395    2.9150585005
H       -0.2243670661   -0.3981131299    2.6370707008
H       -0.4893133873   -2.0893824132    2.0915395942
H        1.5096851154    0.4754861770   -1.6319904455
12   
torsion grid (75,)
C       -0.9587839991   -1.0403337307    2.2753017455
C        1.6980286322   -0.5715444567   -1.3784821749
N       -0.2253214275   -0.1098181506   -0.2023351907
N        0.5482661250   -1.0786209657   -0.5554983195
O        0.4912929568   -2.2890436004   -0.2810647132
S       -1.6644848214   -0.6218079169    0.6416068441
Br       1.6529055685   -1.4243670640   -3.1239728617
Br       3.3605319550   -0.8661560920   -0.4106061681
H       -1.8179164662   -1.2417358007    2.9208086129
H       -0.4046078280   -0.1865462744    2.6690601553
H       -0.3254219808   -1.9276728212    2.2187855566
H        1.5621246897    0.4944729601   -1.5107749580
12   
torsion grid (90,)
C       -0.9703879370   -0.9614190791    2.3273653163
C        1.7116987347   -0.5729735326   -1.3706786836
N       -0.2203356921   -0.2436833262   -0.1707683824
N        0.5459853808   -1.1738928249   -0.6276949979
O        0.4753376863   -2.4072692490   -0.5280320784
S       -1.6612758646   -0.8431271513    0.6400589247
Br       1.6748466698   -1.1819673620   -3.2143275349
Br       3.3568348802   -1.0185082325   -0.4332803498
H       -1.8166971377   -1.1973928533    2.9782264916
H       -0.5391911844   -0.0046193849    2.6280656285
H       -0.2295995609   -1.7610514973    2.3923875599
H        1.5893974291    0.5027305799   -1.3584933657
12   
torsion grid (105,)
C       -0.9805860000   -0.8836411266    2.3712564207
C        1.7195077989   -0.5785332703   -1.3524697886
N       -0.2189438592   -0.3948734077   -0.1366284288
N        0.5440656392   -1.2636625335   -0.7059418440
O        0.4481008067   -2.4964589239   -0.7990451475
S       -1.6173116988   -1.0844868727    0.6719597944
Br       1.7008498898   -0.9243644540   -3.2633632079
Br       3.3495603704   -1.1702706608   -0.4687180909
H       -1.8139013657   -1.1318144186    3.0343588959
H       -0.6725679874    0.1491408845    2.5480935908
H       -0.1526746506   -1.5708037380    2.5551648491
H        1.6105144610    0.4865946084   -1.1918385151
12   
torsion grid (120,)
C       -1.0156542151   -0.8167984516    2.4085977668
C        1.7371570557   -0.5932450067   -1.3462918324
N       -0.1737909638   -0.5226101036   -0.0761220185
N        0.5677097050   -1.3262293385   -0.7569326665
O        0.4301007883   -2.5378558508   -1.0001912911
S       -1.5188328175   -1.2925485771    0.7211254258
Br       1.6672143547   -0.6951349738   -3.2863004975
Br       3.3763746059   -1.3243887680   -0.5900197393
H       -1.8482977330   -1.0931123240    3.0612750355
H       -0.8447849449    0.2599136397    2.4759567536
H       -0.1212077267   -1.3672140868    2.7044563351
H        1.6606252956    0.4460499280   -1.0527247432
12   
torsion grid (135,)
C       -1.4962028258    1.1656863059    1.7455419823
C        1.5984264803   -0.5834854211   -1.3831119798
N       -0.3122034520    0.2306366749   -0.4022786854
N        0.2645738855   -0.8590965687   -0.7703053380
O       -0.1549214258   -2.0330850869   -0.7142888101
S       -1.8224682220   -0.0198234855    0.4002368177
Br       1.6088582248   -1.1711755285   -3.2386065269
Br       2.9767488153   -1.4329805944   -0.2983808563
H       -2.4290810273    1.2480704325    2.3096563722
H       -1.2253981221    2.1464724663    1.3488414014
H       -0.7078474846    0.7841172202    2.3957827913
H        1.7617145531    0.4866064090   -1.3622220345
12   
torsion grid (150,)
C       -1.5445195672    1.2161323275    1.7388887202
C        1.6232325356   -0.6075693807   -1.3841106709
N       -0.2255444853    0.1732698951   -0.2631811414
N        0.3034742488   -0.8877308471   -0.7589457287
O       -0.1711863301   -2.0462824978   -0.7932600672
S       -1.7151082914   -0.1375337708    0.5322650283
Br       1.5526692987   -1.0042477717   -3.2903591697
Br       3.0007303451   -1.6169283123   -0.4430102856
H       -2.4845412414    1.2458402949    2.2959601550
H       -1.3907416745    2.1739856932    1.2379662640
H       -0.7212414631    1.0055358807    2.4227334630
H        1.8349760241    0.4474713129   -1.2640814331
12   
torsion grid (165,)
C       -1.5898204534    1.2544246897    1.7190564659
C        1.6463752671   -0.6295456097   -1.3807274805
N       -0.1226691136    0.1169292996   -0.1133960812
N        0.3415012921   -0.9065590121   -0.7344257543
O       -0.1936874266   -2.0370798037   -0.8463706794
S       -1.6057817969   -0.2291928293    0.6636991349
Br       1.4839590002   -0.8309210824   -3.3134054721
Br       3.0099260656   -1.7893871465   -0.6057382621
H       -2.5266515625    1.2350034861    2.2816731086
H       -1.5484626073    2.1639865009    1.1171009779
H       -0.7485314234    1.2167152119    2.4124976869
H        1.9160421581    0.3975691194   -1.1690985106
12   
torsion grid (180,)
C       -1.6235332202    1.2806306931    1.6850677143
C        1.6619407013   -0.6432865888   -1.3685075186
N       -0.0192779650    0.0462204481    0.0434525757
N        0.3720951437   -0.9249100716   -0.6992714287
O       -0.2172680848   -2.0194455759   -0.8867516255
S       -1.5075273184   -0.3067071969    0.8011240818
Br       1.4093754120   -0.6401405468   -3.3031329499
Br       3.0020280861   -1.9322549760   -0.7783041053
H       -2.5576106443    1.2431599984    2.2512307772
H       -1.6602420530    2.1131381949    0.9806257739
H       -0.7865523895    1.4007910175    2.3747710461
H        1.9887717315    0.3447474278   -1.0694392071
