27   
torsion grid (-165,)
C       -2.2407667950   -3.0287459058   -2.6995083163
C       -0.5678252957   -1.6935545956   -3.0309916318
C       -0.6746183538   -2.5343585428   -4.1569140413
C       -1.9180982991    1.2278419871   -3.7049804335
C        2.5145757097    1.1356119591   -5.6445112194
C       -0.9411620627    0.6651627681   -4.7445633320
C        1.3647651502    1.7582354099   -4.8521307848
N       -1.5635327685   -2.0380489970   -2.1403382259
N        0.4453466589   -0.8510686869   -2.6321100547
N        0.9953673830    0.1030251257   -3.2651196224
N       -1.7466659152   -3.3796419143   -3.9131774216
N        0.4600337957    0.7330932533   -4.2945653544
N        0.0787235608   -2.6632073024   -5.3284076857
O       -0.2648998026   -3.5594143511   -6.1346981487
O        1.0293503082   -1.8762717353   -5.5023452634
H       -3.0980062253   -3.5208906056   -2.2569603317
H       -1.6799457916    2.2713789066   -3.4773880986
H       -2.9363866428    1.1859241583   -4.1049535447
H       -1.8977183639    0.6581180912   -2.7736985662
H        2.1367320340    0.5358707038   -6.4768358377
H        3.1641352239    1.9243978982   -6.0394023668
H        3.1072498816    0.4828060754   -4.9993274319
H       -1.2086612323   -0.3539754569   -5.0201141027
H       -0.9896631842    1.2530092697   -5.6622735878
H        1.7463782113    2.3645340570   -4.0257931790
H        0.7660218558    2.4014616040   -5.5004316470
H       -2.0366501869   -4.1181690869   -4.5441984438
27   
torsion grid (-150,)
C       -2.3144525997   -3.0048582934   -2.7364074826
C       -0.6164968127   -1.6803691368   -2.9747237907
C       -0.6586665682   -2.5301708761   -4.0979626476
C       -1.9386376113    1.2177593605   -3.7691897005
C        2.3559849901    1.1475910854   -5.7566320308
C       -0.8753301892    0.6674476572   -4.7269354853
C        1.4200723553    1.7530932956   -4.7083623360
N       -1.6673718143   -2.0124766522   -2.1448265950
N        0.3787249276   -0.8438965412   -2.5215879340
N        0.9652958813    0.1120114048   -3.1184078945
N       -1.7477872122   -3.3689788523   -3.9137002603
N        0.4825832935    0.7570797192   -4.1639114991
N        0.1658941675   -2.6715174797   -5.2183526246
O       -0.1244934256   -3.5793897658   -6.0322536926
O        1.1231921313   -1.8830486719   -5.3438703973
H       -3.2002385281   -3.4886724293   -2.3436732636
H       -1.7292274603    2.2628078157   -3.5210803893
H       -2.9209973176    1.1675634209   -4.2498824863
H       -1.9870998082    0.6460360770   -2.8402106187
H        1.7926420986    0.7261033116   -6.5942138229
H        3.0322787727    1.9184777292   -6.1420190678
H        2.9489601870    0.3432205691   -5.3152704947
H       -1.1060451397   -0.3541249321   -5.0247201291
H       -0.8552436128    1.2568821712   -5.6453917293
H        1.9874986944    2.1588794287   -3.8686854808
H        0.8281413008    2.5600528757   -5.1500059741
H       -2.0020577252   -4.1118958187   -4.5548419920
27   
torsion grid (-135,)
C       -2.3730690406   -2.9786408538   -2.7694606957
C       -0.6584161922   -1.6665113433   -2.9421409533
C       -0.6492551515   -2.5324213020   -4.0541242139
C       -1.9116286068    1.2259155135   -3.8171561760
C        2.2191157066    1.1915857038   -5.8869990294
C       -0.8285782980    0.6516542858   -4.7382017322
C        1.4605012233    1.7148157564   -4.6650824437
N       -1.7507114472   -1.9813102100   -2.1603117387
N        0.3143244536   -0.8237335167   -2.4545713648
N        0.9393938238    0.1113467184   -3.0462841903
N       -1.7515719054   -3.3622256526   -3.9124475261
N        0.5131386387    0.7235334808   -4.1360623856
N        0.2285850663   -2.6955208762   -5.1302147117
O       -0.0332595724   -3.6065771324   -5.9505312455
O        1.2028957104   -1.9226668231   -5.2130567185
H       -3.2795164549   -3.4528502068   -2.4139515964
H       -1.6887752596    2.2671180699   -3.5645016965
H       -2.8774764307    1.1954120583   -4.3315873128
H       -2.0047318985    0.6586555690   -2.8890953833
H        1.5353149660    0.9298214746   -6.7004626387
H        2.9080947184    1.9604598745   -6.2529432325
H        2.7875407308    0.2958682001   -5.6274642905
H       -1.0671805138   -0.3671718538   -5.0404601070
H       -0.7697411906    1.2382104216   -5.6571679606
H        2.1488943177    1.9536204829   -3.8533620055
H        0.8993469386    2.6210358603   -4.9198762946
H       -1.9784005895   -4.1124441852   -4.5553899703
27   
torsion grid (-120,)
C       -2.4256572702   -2.9699750676   -2.8119953216
C       -0.7032065743   -1.6604366458   -2.9175184186
C       -0.6390556892   -2.5423052941   -4.0153910434
C       -1.8760171269    1.2321567273   -3.8519225843
C        2.1219016471    1.2613815758   -5.9615733850
C       -0.7931320139    0.6241369119   -4.7517590206
C        1.4934342874    1.6674879284   -4.6272315101
N       -1.8331081565   -1.9648248611   -2.1866774270
N        0.2383937747   -0.8024571964   -2.3964188699
N        0.9012239183    0.1077144002   -2.9858843680
N       -1.7486339029   -3.3685283766   -3.9178171245
N        0.5422982097    0.6625839107   -4.1320348393
N        0.2894411261   -2.7238582452   -5.0458166524
O        0.0538287078   -3.6343724526   -5.8751039454
O        1.2786627614   -1.9673399649   -5.0828001146
H       -3.3486521050   -3.4396176531   -2.4951151802
H       -1.6269490095    2.2668214152   -3.5968052463
H       -2.8308348871    1.2303490221   -4.3872563539
H       -2.0075922697    0.6711579503   -2.9250288214
H        1.3696434815    1.1510473356   -6.7490897119
H        2.8330683575    2.0298131283   -6.2823826195
H        2.6457433442    0.3082399170   -5.8605115195
H       -1.0544890629   -0.3891933319   -5.0558760835
H       -0.7054609759    1.2069344470   -5.6705135337
H        2.2580950187    1.7648524451   -3.8559703740
H        0.9755022797    2.6315858820   -4.7113382367
H       -1.9437821523   -4.1269464377   -4.5615942845
27   
torsion grid (-105,)
C       -2.4940813589   -2.9515587872   -2.8759267112
C       -0.7680874536   -1.6432936782   -2.9247179095
C       -0.6552376343   -2.5416238604   -4.0051481438
C       -1.8623752759    1.2533995664   -3.9090803957
C        2.0208345664    1.3872536336   -6.0169972152
C       -0.7813287043    0.6118871020   -4.7881622372
C        1.5056488481    1.6433592763   -4.6008553936
N       -1.9291456792   -1.9373490376   -2.2401872695
N        0.1446691228   -0.7701501208   -2.3763921134
N        0.8392731982    0.1194099525   -2.9590865730
N       -1.7687379128   -3.3656587190   -3.9449193088
N        0.5490436281    0.6186670996   -4.1534458700
N        0.3144853977   -2.7391336202   -4.9951259845
O        0.1022673569   -3.6518088058   -5.8287163170
O        1.3138811145   -1.9962162078   -4.9933759878
H       -3.4300369161   -3.4172014134   -2.5930294791
H       -1.5872517086    2.2804019586   -3.6497443120
H       -2.8048036193    1.2808814096   -4.4651991852
H       -2.0326278467    0.6989229812   -2.9847845530
H        1.2297000670    1.4610262256   -6.7696201619
H        2.7827810290    2.1326811157   -6.2665501215
H        2.4638820043    0.3904839171   -6.0836587733
H       -1.0642788223   -0.3965534336   -5.0905727262
H       -0.6694270747    1.1867241738   -5.7083541814
H        2.3299263443    1.6030112974   -3.8883017620
H        1.0451009475    2.6365809635   -4.5067770993
H       -1.9356647166   -4.1325487623   -4.5866862507
27   
torsion grid (-90,)
C       -2.5443388880   -2.9171665307   -2.8582426896
C       -0.8004745586   -1.6338183432   -2.8972718290
C       -0.6645845054   -2.5709469300   -3.9402516231
C       -1.8170008382    1.2731402553   -3.9760845958
C        1.9268895812    1.5776856520   -6.0264637780
C       -0.7386894964    0.5721332323   -4.8124922854
C        1.5362809947    1.6308783792   -4.5510540848
N       -1.9859381556   -1.8883583361   -2.2401845900
N        0.1072592533   -0.7525064698   -2.3495505384
N        0.8217620213    0.1176759142   -2.9333134449
N       -1.7905147225   -3.3778072436   -3.8879150365
N        0.5850049720    0.5722259863   -4.1615824168
N        0.3297441562   -2.8092944244   -4.8977564513
O        0.1270456716   -3.7438207432   -5.7091493975
O        1.3371481505   -2.0786873605   -4.8907723880
H       -3.4949612476   -3.3609444727   -2.5896123534
H       -1.5260701785    2.3052063241   -3.7572807835
H       -2.7523008422    1.2946879626   -4.5444024884
H       -2.0093197489    0.7617153735   -3.0312858104
H        1.1107674138    1.8631391543   -6.6967279326
H        2.7498322504    2.2773239685   -6.2029474436
H        2.2615496999    0.5716202165   -6.2942325614
H       -1.0401740162   -0.4423737029   -5.0719466770
H       -0.6057489368    1.0991713490   -5.7568560189
H        2.4176769277    1.4597512634   -3.9325869076
H        1.1378717783    2.6134355328   -4.2611981121
H       -1.9478871567   -4.1637837135   -4.5087466655
27   
torsion grid (-75,)
C       -2.5915280847   -2.8921550753   -2.8355409235
C       -0.8069669297   -1.6681294752   -2.8955831139
C       -0.6805397710   -2.6551829967   -3.8908412137
C       -1.7357718833    1.2709752659   -4.1113351357
C        1.7980874156    1.8181677175   -6.0088584959
C       -0.6609531690    0.4816738902   -4.8696003789
C        1.5940466135    1.5928597302   -4.5141087534
N       -2.0123021352   -1.8536607597   -2.2527047037
N        0.1252062938   -0.7992733328   -2.3663781470
N        0.8549555038    0.0531888360   -2.9535000007
N       -1.8322544866   -3.4236921958   -3.8262802423
N        0.6482325983    0.4993275942   -4.1915787513
N        0.3238082274   -2.9576182627   -4.8194800370
O        0.1184887087   -3.9295266044   -5.5844830795
O        1.3409410480   -2.2412733549   -4.8341393887
H       -3.5614196955   -3.2925615634   -2.5677289139
H       -1.4307622171    2.3133704561   -3.9762944209
H       -2.6665547665    1.2597958798   -4.6874226704
H       -1.9427567593    0.8413796790   -3.1288891133
H        0.9408548678    2.2939674303   -6.4937761787
H        2.6560762444    2.4827505501   -6.1487853509
H        2.0124387251    0.8738052045   -6.5183032581
H       -0.9802235063   -0.5441162582   -5.0428320411
H       -0.5011412808    0.9154444776   -5.8553565035
H        2.5384742750    1.2907671122   -4.0602375309
H        1.2849793637    2.5133877844   -4.0008135923
H       -2.0031138287   -4.2318938834   -4.4141385827
27   
torsion grid (-60,)
C        0.7338230859   -3.6956624727   -5.9053803079
C        0.2383677611   -2.4184366776   -4.2294615673
C       -0.9565885633   -2.6978179687   -4.9224092533
C        0.6868372273    2.2368647398   -2.0287478963
C       -0.8269601355    1.7264868285   -5.1653050124
C       -0.5899602173    1.4288844009   -2.2756995060
C       -0.1499385718    0.4768760610   -4.6046452334
N        1.2719138843   -3.0673732335   -4.8720612445
N        0.4446752997   -1.8755863185   -2.9812706064
N        0.0493766022   -0.7828543114   -2.4750433393
N       -0.6090653492   -3.5188129114   -5.9846792420
N       -0.3778687443    0.2704858147   -3.1606360462
N       -2.2902459260   -2.3327348600   -4.7117792627
O       -3.1391805805   -2.7734813336   -5.5225794741
O       -2.5464713030   -1.5858093965   -3.7479888040
H        1.2839650176   -4.2931223878   -6.6218616420
H        1.0979272007    2.6475360540   -2.9563447240
H        0.4757388756    3.0738500125   -1.3550407329
H        1.4492880288    1.6039933634   -1.5652909481
H       -0.4388012126    2.6544575595   -4.7392140171
H       -0.6445717481    1.7582549180   -6.2437671650
H       -1.9085856048    1.6889281826   -5.0094466497
H       -0.9710999153    1.0241706145   -1.3381555599
H       -1.3765721896    2.0494314624   -2.7070927956
H       -0.5377253533   -0.3792257230   -5.1483321511
H        0.9343307275    0.5055168241   -4.7823215728
H       -1.2783352093   -3.9038799869   -6.6414972664
27   
torsion grid (-45,)
C        0.6929292282   -3.6343026496   -6.0005930808
C        0.3146630950   -2.3604156143   -4.2917632565
C       -0.9311313830   -2.6905547099   -4.8632605056
C        0.5060614280    2.2604103376   -1.9017953147
C       -0.5927965909    1.8277317821   -5.2302951586
C       -0.6901526885    1.4161702963   -2.3478396611
C       -0.2509119267    0.4341500784   -4.7037610468
N        1.3049212067   -2.9761383872   -5.0289253039
N        0.6136362885   -1.7932322458   -3.0746807698
N        0.1865568783   -0.7159029062   -2.5551725429
N       -0.6569574910   -3.5084767812   -5.9500116559
N       -0.3114604823    0.3022021546   -3.2357999183
N       -2.2522919647   -2.4068147401   -4.5045028858
O       -3.1576210506   -2.9016151103   -5.2176472862
O       -2.4480766826   -1.6756157378   -3.5137210639
H        1.1931437263   -4.2165044567   -6.7647205533
H        1.0130180059    2.7297678735   -2.7502977332
H        0.1717348061    3.0531762646   -1.2242444067
H        1.2292385479    1.6341690234   -1.3723477053
H        0.0469196598    2.6077866541   -4.8111854137
H       -0.4422714042    1.8222325783   -6.3141227337
H       -1.6379110905    2.0898573271   -5.0474564583
H       -1.1810845946    0.9678848510   -1.4833025876
H       -1.4351575558    2.0224243179   -2.8623933047
H       -0.9294185699   -0.2827669421   -5.1670338309
H        0.7697643124    0.1720495004   -5.0089771909
H       -1.3716562880   -3.9291590777   -6.5327593151
27   
torsion grid (-30,)
C        0.6071439316   -3.6145372051   -6.1219024858
C        0.4056860337   -2.3532284051   -4.3740902839
C       -0.8930131726   -2.6908990863   -4.8094180492
C        0.2382839577    2.2998578243   -1.8811800761
C       -0.2814793167    1.8427371562   -5.2669230609
C       -0.7752674662    1.2776713535   -2.3979670460
C       -0.2803334914    0.3953428173   -4.7688077213
N        1.3150361422   -2.9566241028   -5.2169198435
N        0.8252339085   -1.7788389983   -3.1948346208
N        0.3979253527   -0.7138913155   -2.6495655927
N       -0.7297727941   -3.4983388881   -5.9263607183
N       -0.1854914939    0.2763414492   -3.3059120394
N       -2.1723111844   -2.4332938134   -4.3075676344
O       -3.1407832261   -2.9364447195   -4.9256537629
O       -2.2760703486   -1.7202934274   -3.2897649174
H        1.0267550976   -4.1894767765   -6.9382568606
H        0.6543043636    2.9070385048   -2.6896234267
H       -0.2453110410    2.9716926722   -1.1641521935
H        1.0599623183    1.7876394510   -1.3732257843
H        0.6172433563    2.3769309011   -4.9488939470
H       -0.2932034801    1.8259079770   -6.3609908079
H       -1.1591494547    2.4052338982   -4.9401077133
H       -1.2168855896    0.7250411690   -1.5680848296
H       -1.5964882335    1.7619505249   -2.9284141285
H       -1.1679993456   -0.1285001178   -5.1389735837
H        0.6018616779   -0.0990417232   -5.1820793436
H       -1.4996375005   -3.9259359163   -6.4283107496
27   
torsion grid (-15,)
C        0.5842417127   -3.5991060181   -6.1325911596
C        0.4309605826   -2.3254186515   -4.3882491081
C       -0.8787917256   -2.6891378206   -4.7684247049
C        0.1596382589    2.2912875357   -1.8907887086
C       -0.1627014510    1.8634221586   -5.2686412652
C       -0.8373170759    1.2574852738   -2.4175789588
C       -0.3468917487    0.4206667415   -4.7910520576
N        1.3159314226   -2.9214301207   -5.2617974043
N        0.8939726638   -1.7204553075   -3.2397534033
N        0.4448124279   -0.6654149817   -2.6916927226
N       -0.7453653393   -3.5010634346   -5.8858438874
N       -0.2380674048    0.2704537831   -3.3330209319
N       -2.1454356258   -2.4443664129   -4.2288596580
O       -3.1270257561   -2.9483593386   -4.8263368573
O       -2.2267308728   -1.7432883520   -3.2014021082
H        0.9808700491   -4.1764369861   -6.9586733689
H        0.5653133212    2.9135126870   -2.6927404010
H       -0.3355596155    2.9469035535   -1.1667425651
H        0.9892208111    1.7874595828   -1.3876971787
H        0.8189188589    2.2512308480   -4.9845593775
H       -0.2295099756    1.8752783629   -6.3609368414
H       -0.9310370742    2.5392942862   -4.8854965881
H       -1.2751785772    0.6943703323   -1.5922540169
H       -1.6637924318    1.7327806969   -2.9497500293
H       -1.3099879464    0.0231738681   -5.1349737983
H        0.4342150498   -0.1923506775   -5.2394258565
H       -1.5280182304   -3.9447299047   -6.3530918170
27   
torsion grid (0,)
C       -2.2408659655   -2.9830394220   -2.5160393758
C       -0.4406529298   -2.0616248953   -3.2925670295
C       -1.1762604736   -2.5563009754   -4.3889514993
C       -0.9620484937    1.1505989751   -3.0537595557
C        1.7869818322    2.5505767405   -4.9444257833
C       -0.5703260448    0.6373876434   -4.4443097456
C        1.7551894387    1.0745823468   -5.3497925051
N       -1.1397569248   -2.3522722214   -2.1388435522
N        0.8593974066   -1.6211972602   -3.2129655605
N        1.4550608144   -0.7288260290   -3.8938745138
N       -2.3155485197   -3.1454155929   -3.8606229674
N        0.8480032804    0.2558632851   -4.5318898765
N       -0.9321665481   -2.5915593461   -5.7654513434
O       -1.7854640470   -3.1671168257   -6.4811640341
O        0.1003273924   -2.0394456447   -6.1934077355
H       -3.0119785009   -3.3394984433   -1.8442747101
H       -0.3627879108    2.0238374586   -2.7814633322
H       -2.0166734268    1.4443710211   -3.0617803146
H       -0.8304896375    0.3889044790   -2.2827519992
H        2.0980954912    2.6593812107   -3.9010872827
H        2.5083986916    3.0811921654   -5.5739995762
H        0.8184368560    3.0440538902   -5.0697545587
H       -1.2094484708   -0.1896099772   -4.7505488642
H       -0.7134842177    1.4241646994   -5.1867802888
H        1.4673125559    0.9601793500   -6.4008961408
H        2.7446163075    0.6380482180   -5.2135789809
H       -3.0158327601   -3.6187207552   -4.4202324845
27   
torsion grid (15,)
C       -2.2149486382   -2.9659773167   -2.5088867647
C       -0.4231012727   -2.0331594568   -3.2926524423
C       -1.1417798171   -2.5655622979   -4.3825219401
C       -0.9883450567    1.1524059518   -3.1286868259
C        1.8688689772    2.5142082813   -4.8365289660
C       -0.6045496393    0.6329285269   -4.5198207600
C        1.7117099555    1.1030791546   -5.4084847862
N       -1.1272363513   -2.3091759421   -2.1381112737
N        0.8652046455   -1.5589173390   -3.2097897543
N        1.4432725503   -0.6776236381   -3.9203952235
N       -2.2762325542   -3.1598500349   -3.8500253154
N        0.8118260646    0.2456410653   -4.6243328918
N       -0.8871171662   -2.6336923953   -5.7564765135
O       -1.7325844658   -3.2290234780   -6.4658287249
O        0.1504437741   -2.0955425173   -6.1880848443
H       -2.9854860375   -3.3198015939   -1.8350759514
H       -0.3823647764    2.0215391318   -2.8589530039
H       -2.0405290024    1.4547543744   -3.1381089755
H       -0.8639348915    0.3937395056   -2.3540600404
H        2.2610496307    2.4742657296   -3.8159441371
H        2.5719273768    3.0828508071   -5.4538114497
H        0.9222947770    3.0636027404   -4.8229232068
H       -1.2503573722   -0.1923046560   -4.8199940718
H       -0.7476880045    1.4201653826   -5.2627054076
H        1.3307178652    1.1352642562   -6.4348512597
H        2.6740273347    0.5918540352   -5.4244071093
H       -2.9638588983   -3.6570564416   -4.4046552299
27   
torsion grid (30,)
C       -2.1968427234   -2.9347103174   -2.4638662175
C       -0.4175641701   -1.9832011817   -3.2524885995
C       -1.1108605122   -2.5597967617   -4.3359054961
C       -1.0405234576    1.1723230350   -3.1583918056
C        1.9569533822    2.4621953451   -4.7402524405
C       -0.6637763887    0.6431880966   -4.5485209804
C        1.6447370741    1.1386726724   -5.4419308683
N       -1.1279185179   -2.2452546742   -2.0986589414
N        0.8560432611   -1.4682940824   -3.1655753541
N        1.4116625944   -0.5964220742   -3.9045155276
N       -2.2385412810   -3.1634242592   -3.8004132137
N        0.7533971671    0.2586283615   -4.6709613011
N       -0.8415831742   -2.6608002978   -5.7061308935
O       -1.6791086640   -3.2762231927   -6.4080243404
O        0.1969680062   -2.1291220672   -6.1408807263
H       -2.9668359726   -3.2886979445   -1.7895655691
H       -0.4338840907    2.0435912760   -2.8975703283
H       -2.0925047028    1.4754375575   -3.1685416433
H       -0.9158578304    0.4222754933   -2.3760364657
H        2.4226579235    2.2772547323   -3.7678694976
H        2.6504166295    3.0504453458   -5.3501547277
H        1.0558786776    3.0641915590   -4.5857232317
H       -1.3117900012   -0.1850138005   -4.8390919773
H       -0.8148499263    1.4278724899   -5.2926095127
H        1.1686686419    1.3117246975   -6.4119853766
H        2.5559640051    0.5694615604   -5.6253653969
H       -2.9089250329   -3.6890539843   -4.3500368585
27   
torsion grid (45,)
C       -2.1701954631   -2.9587067753   -2.5225894013
C       -0.4089158429   -1.9757493012   -3.3111818393
C       -1.0749214305   -2.5901180089   -4.3903658352
C       -1.1014622354    1.1647365891   -3.2599963502
C        2.0955784192    2.3590691179   -4.6860603294
C       -0.7186212806    0.6248731161   -4.6445988436
C        1.5958378880    1.1747093747   -5.5147005975
N       -1.1233010957   -2.2351710534   -2.1595951291
N        0.8492196511   -1.4221179815   -3.2213496155
N        1.3826984668   -0.5457373403   -3.9700520893
N       -2.1915535054   -3.2134499392   -3.8550435781
N        0.7063873699    0.2653198761   -4.7709364564
N       -0.7904388516   -2.7072234097   -5.7568822269
O       -1.6085676253   -3.3513601506   -6.4558086085
O        0.2417481439   -2.1630950087   -6.1899113966
H       -2.9376217160   -3.3205036699   -1.8495498933
H       -0.5197843280    2.0578138085   -3.0166318125
H       -2.1619974192    1.4365947054   -3.2683140550
H       -0.9507851343    0.4313623786   -2.4664949445
H        2.6271369669    2.0026375862   -3.7995030320
H        2.7831084561    2.9679306746   -5.2824252095
H        1.2703857907    3.0017734072   -4.3634774517
H       -1.3513044772   -0.2204200526   -4.9197386872
H       -0.8903589915    1.3955130426   -5.3981574955
H        1.0381936470    1.5178006390   -6.3902463434
H        2.4240017400    0.5711267172   -5.8885428246
H       -2.8423480405   -3.7662883324   -4.4015910732
27   
torsion grid (60,)
C       -2.1491465153   -2.9752453758   -2.5273208077
C       -0.4141999217   -1.9542013119   -3.3258323195
C       -1.0498839298   -2.6165679515   -4.3944326674
C       -1.1995976550    1.1971537632   -3.3455652725
C        2.2543167254    2.2405997961   -4.6376654277
C       -0.7938656023    0.6090618439   -4.7035285995
C        1.5252984849    1.2442277923   -5.5395973504
N       -1.1297418378   -2.2084818411   -2.1740671067
N        0.8267515384   -1.3619878704   -3.2412416613
N        1.3377572621   -0.4769126519   -3.9947681348
N       -2.1500702447   -3.2634932644   -3.8531387003
N        0.6471505820    0.3094880845   -4.8061179048
N       -0.7498843742   -2.7512738158   -5.7557769486
O       -1.5355304405   -3.4423051018   -6.4467949613
O        0.2617541970   -2.1725154247   -6.1928694765
H       -2.9103240277   -3.3453509038   -1.8516998729
H       -0.6627374617    2.1297570488   -3.1505389770
H       -2.2725688459    1.4146458610   -3.3580186487
H       -1.0065563051    0.5098855827   -2.5200319121
H        2.8760992949    1.7116891644   -3.9117932541
H        2.8974432799    2.8876768373   -5.2432475762
H        1.5475018058    2.8754811394   -4.0940405084
H       -1.3843622875   -0.2780139956   -4.9335890338
H       -1.0026451864    1.3292335243   -5.4957367175
H        0.8932324797    1.7684374408   -6.2596372205
H        2.2254953536    0.6433471837   -6.1245927810
H       -2.7778909682   -3.8505311821   -4.3908027288
27   
torsion grid (75,)
C       -2.1327366103   -2.9932420689   -2.5238683381
C       -0.4255271542   -1.9130989734   -3.3041461727
C       -1.0140584933   -2.6148059783   -4.3750654108
C       -1.3285080231    1.2498155459   -3.3914173037
C        2.4538829063    2.1118770305   -4.6256409233
C       -0.8598830127    0.6249151273   -4.7113177999
C        1.4528603427    1.3563156623   -5.4988574122
N       -1.1526064709   -2.1799217251   -2.1625110677
N        0.7939999606   -1.2815981398   -3.2067156725
N        1.2923933797   -0.3781720732   -3.9478771581
N       -2.0971720246   -3.2994610643   -3.8450330580
N        0.5983791780    0.4093526894   -4.7481757609
N       -0.6872993513   -2.7424234704   -5.7297512458
O       -1.4190956349   -3.4845390141   -6.4266776700
O        0.2940380150   -2.1057228773   -6.1578907596
H       -2.8909702658   -3.3848684614   -1.8570845620
H       -0.8427263443    2.2164337541   -3.2271429871
H       -2.4106564808    1.4109555062   -3.4315778517
H       -1.1151636591    0.6060098283   -2.5356705291
H        3.1491659189    1.4234760782   -4.1431739498
H        3.0245712774    2.8085904733   -5.2483916815
H        1.9393987454    2.6856975705   -3.8481453963
H       -1.3901490391   -0.3047794568   -4.9111344742
H       -1.0873250767    1.2901648829   -5.5450593056
H        0.7794412635    2.0614845410   -5.9896755380
H        1.9597632444    0.7984956829   -6.2926065993
H       -2.6920256338   -3.9173059856   -4.3855335956
27   
torsion grid (90,)
C       -2.1260254929   -3.0236748724   -2.5795118177
C       -0.4452810199   -1.8427833419   -3.2668675703
C       -0.9389223699   -2.5695792603   -4.3703202437
C       -1.5258876629    1.2420727857   -3.4276815541
C        2.6589830242    1.8962290936   -4.8126860815
C       -0.9261113351    0.6625662803   -4.7142515764
C        1.3672591878    1.4327852030   -5.4814538734
N       -1.2146047593   -2.1575547336   -2.1652911828
N        0.7315415300   -1.1510680632   -3.1051940169
N        1.2316416373   -0.2341322557   -3.8315233848
N       -2.0057779283   -3.3198779845   -3.8977841384
N        0.5408922332    0.5427003263   -4.6386959423
N       -0.5310206795   -2.6773305663   -5.7033060661
O       -1.1700331909   -3.4696481442   -6.4353032527
O        0.4258873322   -1.9739778034   -6.0834386613
H       -2.8941322660   -3.4614922229   -1.9539671019
H       -1.1024200901    2.2287703618   -3.2162950086
H       -2.6082498388    1.3507389621   -3.5505455331
H       -1.3470588235    0.5980449645   -2.5644843711
H        3.3352329497    1.0622538174   -4.6234126093
H        3.1585828406    2.6103353360   -5.4754117245
H        2.4512496151    2.3909868506   -3.8593184872
H       -1.3838888422   -0.2932786708   -4.9649088763
H       -1.1288439873    1.3279639372   -5.5546552871
H        0.7481298468    2.2982683926   -5.7300342493
H        1.5943479848    0.9024802405   -6.4138007004
H       -2.5342952584   -3.9695037688   -4.4689436353
27   
torsion grid (105,)
C       -2.1355630981   -3.0154154711   -2.5787719628
C       -0.4612026894   -1.7972829591   -3.2153470801
C       -0.8917210227   -2.5506308922   -4.3279985586
C       -1.6158047444    1.2517582641   -3.4580274941
C        2.7287805665    1.7414614454   -4.9055217237
C       -0.9552169389    0.6737961493   -4.7149015082
C        1.3142458769    1.5029016554   -5.4202523507
N       -1.2647070026   -2.1200498471   -2.1404559479
N        0.6873274076   -1.0699879222   -3.0169621624
N        1.1922066061   -0.1527006479   -3.7410646667
N       -1.9561699056   -3.3238263167   -3.8874280295
N        0.5098544302    0.5897319108   -4.5843590204
N       -0.4280859059   -2.6651079271   -5.6415193629
O       -1.0164134288   -3.4830310882   -6.3879954409
O        0.5276673809   -1.9444846388   -5.9921669465
H       -2.9155391603   -3.4666449117   -1.9779121084
H       -1.2178266128    2.2470403919   -3.2372639491
H       -2.6938767634    1.3414435035   -3.6252322940
H       -1.4609820731    0.6170666691   -2.5834129929
H        3.3155978099    0.8220362143   -4.9005365921
H        3.2163764234    2.4661115495   -5.5657125425
H        2.7197333490    2.1433289270   -3.8890039058
H       -1.3809451501   -0.2945606643   -4.9742676198
H       -1.1384079317    1.3284774475   -5.5688645833
H        0.7714224097    2.4523127499   -5.4768181869
H        1.3542719562    1.0764651680   -6.4301294849
H       -2.4443803936   -3.9942451431   -4.4702728629
27   
torsion grid (120,)
C       -2.1376345248   -3.0213472774   -2.5991198391
C       -0.4693304737   -1.7739848550   -3.1972793919
C       -0.8540975318   -2.5426433000   -4.3159050123
C       -1.6590379018    1.2645154796   -3.4866260214
C        2.7522802939    1.6400986106   -4.9796334626
C       -0.9738900316    0.6806163441   -4.7275806767
C        1.2783898387    1.5780590791   -5.3561229072
N       -1.2965178246   -2.1064898108   -2.1433008082
N        0.6563087452   -1.0188822384   -2.9716173905
N        1.1608067946   -0.0970989511   -3.6906092443
N       -1.9158885565   -3.3330912418   -3.9004770397
N        0.4894025463    0.6057953499   -4.5755602208
N       -0.3540372060   -2.6549357231   -5.6162692615
O       -0.9140055762   -3.4816925136   -6.3750883895
O        0.6021024535   -1.9242925857   -5.9433110854
H       -2.9248625662   -3.4845240209   -2.0170910382
H       -1.2688348891    2.2627275553   -3.2649640830
H       -2.7340873975    1.3495560885   -3.6741312565
H       -1.5182534279    0.6360961854   -2.6051957547
H        3.2414991748    0.6756859905   -5.1289027491
H        3.2376175521    2.3835690683   -5.6202684756
H        2.8897737195    1.9311773309   -3.9361090256
H       -1.3892122715   -0.2924825249   -4.9867272964
H       -1.1453855162    1.3287607668   -5.5893668609
H        0.8124219022    2.5635171192   -5.2303217040
H        1.1774380411    1.2960232004   -6.4109923287
H       -2.3749529655   -4.0155121217   -4.4930244867
27   
torsion grid (135,)
C       -2.1696102510   -3.0062366085   -2.5923784348
C       -0.4956855539   -1.7497701093   -3.1528028130
C       -0.8303723752   -2.5426726513   -4.2700853296
C       -1.7022885907    1.2630326345   -3.5008551953
C        2.7532199993    1.5357107910   -5.0539564466
C       -0.9952436370    0.6719783627   -4.7263772212
C        1.2501922338    1.6240703639   -5.2782415876
N       -1.3554325177   -2.0742672811   -2.1228558548
N        0.6090125004   -0.9708487568   -2.9004992022
N        1.1186594591   -0.0520099406   -3.6182983046
N       -1.8979894483   -3.3374358449   -3.8795172815
N        0.4668537828    0.6016835469   -4.5571862826
N       -0.2834296149   -2.6730356122   -5.5505192441
O       -0.8159869101   -3.5101849747   -6.3178428099
O        0.6836919572   -1.9471115866   -5.8522534479
H       -2.9716930672   -3.4689391679   -2.0306595043
H       -1.3159699407    2.2623971366   -3.2777032821
H       -2.7733769030    1.3480470798   -3.7097515877
H       -1.5798484487    0.6402637427   -2.6128522557
H        3.1307717801    0.5467392131   -5.3239839192
H        3.2402893780    2.2833701379   -5.6884088491
H        3.0207384947    1.7289135456   -4.0139285983
H       -1.4034330939   -0.3048470418   -4.9847228456
H       -1.1568073569    1.3143537296   -5.5943858124
H        0.8753616185    2.6153211739   -4.9874010754
H        1.0254686784    1.4906647157   -6.3421027536
H       -2.3279180296   -4.0348991960   -4.4764670623
27   
torsion grid (150,)
C       -2.2419541189   -2.9861436544   -2.5514489962
C       -0.5603804709   -1.7292201973   -3.0858812646
C       -0.8511496272   -2.5500646898   -4.1943765851
C       -1.7687078552    1.2702598336   -3.5097011693
C        2.7160823515    1.3952863974   -5.1565607474
C       -1.0420675232    0.6574150261   -4.7132373160
C        1.2132160869    1.6411306362   -5.1938939185
N       -1.4503929108   -2.0372545592   -2.0772296884
N        0.5275174717   -0.9307107483   -2.8156912289
N        1.0448743870   -0.0196004502   -3.5354714177
N       -1.9250595826   -3.3440136747   -3.8211219251
N        0.4190917474    0.5891677396   -4.5260260236
N       -0.2616747305   -2.7058382613   -5.4538999242
O       -0.7696569704   -3.5582614665   -6.2210036282
O        0.7155412239   -1.9871574486   -5.7367769016
H       -3.0585363652   -3.4426993661   -2.0058787441
H       -1.3881137778    2.2744780996   -3.2993064836
H       -2.8363914482    1.3492745183   -3.7376588306
H       -1.6606939890    0.6647255088   -2.6080390246
H        2.9540027255    0.4104065507   -5.5668752208
H        3.2103396815    2.1590368892   -5.7658412133
H        3.1101598917    1.4475099315   -4.1410986646
H       -1.4458432160   -0.3250311047   -4.9579099585
H       -1.1940267960    1.2826000585   -5.5949778185
H        0.9670419082    2.6144914585   -4.7454933560
H        0.8680418699    1.6670304579   -6.2316519754
H       -2.3296856087   -4.0582370747   -4.4160389806
27   
torsion grid (165,)
C       -2.2394731451   -2.9867525662   -2.6006237421
C       -0.5611726654   -1.7023336409   -3.0736842961
C       -0.7867740608   -2.5380528197   -4.1853534812
C       -1.8131999174    1.2860968696   -3.5509604557
C        2.6974062028    1.3161454631   -5.2840784628
C       -1.0333111549    0.6717383109   -4.7201829972
C        1.2376345437    1.7124771855   -5.0873171145
N       -1.4872425587   -2.0186554090   -2.1014184556
N        0.5001511109   -0.8802507460   -2.7648030369
N        1.0203871096    0.0443017539   -3.4624704190
N       -1.8604717191   -3.3492905170   -3.8519086281
N        0.4223918610    0.6354792471   -4.4843795249
N       -0.1437429667   -2.6878024536   -5.4198713759
O       -0.6036858483   -3.5536457361   -6.2016925863
O        0.8292222702   -1.9510172034   -5.6664923705
H       -3.0700003529   -3.4545900379   -2.0866336003
H       -1.4629763262    2.3018882515   -3.3437760370
H       -2.8745240576    1.3363759878   -3.8143533565
H       -1.7209703355    0.6957603103   -2.6373177048
H        2.7654318452    0.3949029267   -5.8689595587
H        3.2155302875    2.1162822166   -5.8229583196
H        3.1989357829    1.1565115480   -4.3288025161
H       -1.4076313221   -0.3234932635   -4.9593801241
H       -1.1718316782    1.2765580344   -5.6175788077
H        1.1577658162    2.6196400266   -4.4725387495
H        0.7824138243    1.9322429850   -6.0556995023
H       -2.2259855161   -4.0755929350   -4.4574894321
27   
torsion grid (180,)
C       -2.2349678424   -3.0029581094   -2.6530887711
C       -0.5657823458   -1.6904521344   -3.0801502657
C       -0.7460896636   -2.5308732075   -4.1967181158
C       -1.8663919346    1.2732630917   -3.6429166599
C        2.6268963111    1.1900053203   -5.5172171872
C       -1.0121301952    0.6710790562   -4.7654657489
C        1.2866211466    1.7359157138   -5.0293155528
N       -1.5140911167   -2.0213437319   -2.1344155391
N        0.4730688121   -0.8524168495   -2.7408647418
N        1.0019041014    0.0808865608   -3.4202551161
N       -1.8143079592   -3.3606993003   -3.8923851155
N        0.4287293500    0.6772154255   -4.4528388004
N       -0.0628199726   -2.6729555181   -5.4100121217
O       -0.4783455499   -3.5525195778   -6.2010698921
O        0.9002974396   -1.9148683623   -5.6311466611
H       -3.0720480207   -3.4839344464   -2.1623418415
H       -1.5646620546    2.3051806763   -3.4391072016
H       -2.9166336971    1.2767132906   -3.9519091862
H       -1.7902693404    0.7013262954   -2.7159994575
H        2.4732241362    0.4091182680   -6.2666451413
H        3.2129928793    2.0013759493   -5.9618180530
H        3.1942626750    0.7639319722   -4.6875187342
H       -1.3464477336   -0.3363543367   -5.0115294590
H       -1.1222986155    1.2614769012   -5.6759216336
H        1.4347416894    2.5259220846   -4.2834657592
H        0.7341127043    2.1655813788   -5.8668047430
H       -2.1488571490   -4.0951655258   -4.5059435565
