50
0 1 BrC17H24N5O2S
N                    -5.040369253345    -0.166919103118    -0.349555991792
S                    -6.387772766318     0.184168518026     0.338474068482
O                    -6.684327199498     1.517344471970     0.929587259410
C                    -6.551086151175    -1.083086179752     1.584873140955
C                    -5.868695701772    -2.298355820713     1.476327792909
H                    -5.191502550468    -2.460282507273     0.644908229601
C                    -6.053867666791    -3.265149720309     2.456136424994
H                    -5.520476125858    -4.210695239276     2.380826035789
C                    -6.914313753711    -3.035924832023     3.552452431896
N                    -7.030817598916    -4.072313948740     4.482476082585
C                    -7.776454948698    -4.199819435781     5.639157598786
N                    -8.581484529178    -3.205392468463     6.031667492155
C                    -9.261916139176    -3.438046091693     7.170647951283
H                    -9.922984789903    -2.644276820161     7.512119157775
C                    -9.148336061561    -4.609344625476     7.888269638220
Br                  -10.149870704335    -4.882403669878     9.497654923753
C                    -8.262844678732    -5.612376897965     7.392807270744
N                    -8.102759179609    -6.797809305244     8.020452893050
C                    -7.125682371956    -7.809170075597     7.620661833477
C                    -5.741467429505    -7.475654307620     8.194099537174
H                    -4.969040488724    -8.133348972077     7.785694441006
H                    -5.481186231413    -6.448472376942     7.926354712576
H                    -5.741135402556    -7.567443418043     9.283705709339
C                    -7.679453919009    -9.190491741650     8.045074963610
O                    -7.945588452063    -9.058306793453     9.461919644926
H                    -8.410290092248    -9.855518844292     9.761193747338
C                    -6.653824377304   -10.305158391818     7.810518323878
H                    -7.102003030597   -11.280935577284     8.029473385369
H                    -5.784595642055   -10.179558773544     8.458906671530
H                    -6.316461030621   -10.321874650103     6.768561712561
C                    -8.983919871398    -9.498313135535     7.297439483015
H                    -9.407747874414   -10.447780619648     7.645948973955
H                    -9.722604218931    -8.709580260480     7.456296550161
H                    -8.804188742413    -9.592799160571     6.221644830756
H                    -7.071068399799    -7.788289806511     6.529949157056
H                    -8.521360303519    -6.919053038351     8.936126617770
N                    -7.581725397657    -5.379813647619     6.259982957654
H                    -6.468688936096    -4.895369464059     4.304234127064
C                    -7.584639544806    -1.801568578714     3.652335313049
H                    -8.232449020215    -1.615192216947     4.496636653071
C                    -7.394940389372    -0.832915065731     2.667426359880
H                    -7.886616721452     0.131989411926     2.752377860437
C                    -7.830017122939    -0.169975445475    -0.751762708290
C                    -7.823043794994     0.766071691817    -1.955919220360
H                    -8.695397025333     0.565912597383    -2.585618775216
H                    -7.860557654301     1.811277472375    -1.637983053894
H                    -6.929101674364     0.614317421112    -2.569211159540
H                    -7.741087135818    -1.220514744930    -1.040620856910
H                    -8.721530177293    -0.037119061358    -0.133447136388
H                    -4.813470453448     0.530035361477    -1.061680136064
