18
0 1 C5H8N4S
C                     3.204771373171    -0.597547218503     0.495200017290
H                     4.063795857264    -1.089833178605     0.040775443045
N                     2.177373538191    -0.324021222838    -0.312293486368
C                     1.149574137085     0.291531969939     0.307101607043
S                    -0.209678241022     0.666028946229    -0.745387842727
C                    -1.377252335636     1.465238450534     0.423542300240
C                    -2.646008970632     1.852722991355    -0.336458622990
H                    -3.353108646082     2.331622921778     0.348648410542
H                    -2.430745258860     2.558126553301    -1.145161471203
H                    -3.138184570827     0.976430428273    -0.769727332657
H                    -1.592105405894     0.763040210205     1.231471110363
H                    -0.887903219094     2.339163353065     0.858232152348
N                     1.099557090315     0.620631320169     1.600130394169
C                     2.198948939754     0.280348867946     2.304188136757
N                     2.193362643487     0.551149632727     3.637575322368
H                     1.481852482365     1.176564471458     3.989514146222
H                     3.072513991197     0.481097926177     4.131464911673
N                     3.292974593603    -0.330386833091     1.800180192342
