13
0 1 C4H6O2S
C                     1.405517833626    -2.053358863872    -1.247465364553
C                     0.655830182641    -1.627289525489    -0.232406259343
S                     0.381839564093    -2.680686799931     1.191101572697
O                     1.148417874296    -3.922088809670     0.999401084928
O                     0.547347970727    -1.849750735257     2.394256585146
C                    -1.355022225445    -3.090045960277     1.027284501097
C                    -2.243116059462    -2.603314424098     1.892328592924
H                    -3.293619247864    -2.874857947304     1.824950750027
H                    -1.930782154539    -1.936524431080     2.692248062543
H                    -1.576548781257    -3.774412891853     0.212886150316
H                     0.199254407783    -0.644416819768    -0.153803117862
H                     1.609153442414    -1.409108920138    -2.099118907529
H                     1.840971986963    -3.049487289384    -1.235824132682
