47
0 1 BrC16H22N5O2S
N                     0.497704533651    -7.676233923308    -0.092180611599
S                    -0.573587101008    -8.543348357471     0.621432436256
O                    -1.254566234790    -9.703232073144    -0.014190633044
C                    -1.796994217444    -7.337503251505     1.121311623655
C                    -1.464049029501    -5.995468146081     1.302898132608
H                    -0.460730440391    -5.657877994045     1.066675494848
C                    -2.431075095015    -5.116995441685     1.792679893855
H                    -2.173741318735    -4.074909462415     1.967191213541
C                    -3.723280725822    -5.574151993823     2.098317066469
N                    -4.669138559886    -4.677759899127     2.633773732050
C                    -5.422975722219    -4.919363433020     3.773739598521
N                    -6.070518444688    -3.852158967341     4.273300088945
C                    -6.769393341006    -4.092939350207     5.395560527338
H                    -7.309407444771    -3.251107039922     5.823989308151
C                    -6.812986287566    -5.334562190888     6.008965498770
Br                   -7.806268903874    -5.612150119071     7.623063017404
C                    -6.087175916676    -6.394412167569     5.405592621272
N                    -6.022215222983    -7.648511112423     5.914007489997
C                    -5.257291390620    -8.717871070343     5.263308569431
C                    -5.775100673573   -10.078652421332     5.719913390826
H                    -5.164135997557   -10.869888129966     5.278483138705
H                    -5.732090758588   -10.186146357762     6.809170972795
H                    -6.812144080868   -10.222992871689     5.401957464882
C                    -3.731217267418    -8.514617008907     5.468745698531
O                    -3.010552726852    -9.248432931394     4.466286921844
H                    -3.117128297400    -8.763294716047     3.630541271338
C                    -3.216228991134    -8.960208033266     6.829399020386
H                    -2.165896345963    -8.677338196839     6.939919268366
H                    -3.786786885992    -8.483328829523     7.633304247464
H                    -3.287660892392   -10.045612390209     6.942234699127
H                    -3.533186042174    -7.445081290069     5.342078057768
H                    -5.433957937959    -8.619217843567     4.188442353297
H                    -6.520312400833    -7.838375101266     6.773799074667
N                    -5.412724421917    -6.158180210998     4.267914218546
H                    -4.525728096143    -3.689533057766     2.462013218383
C                    -4.059282065618    -6.916674138076     1.843355501664
H                    -5.071237879869    -7.256735394224     2.020266677043
C                    -3.094557132496    -7.798379490800     1.362684155820
H                    -3.347212183177    -8.830559632527     1.134282677857
C                     0.004691521105    -9.170285395616     2.253700212230
C                     1.122386932914   -10.189203425092     2.056490010720
H                     1.445110639690   -10.570420380446     3.029957708085
H                     0.779130166094   -11.033642520526     1.453358480364
H                     1.993014569287    -9.736845446608     1.570912393075
H                     0.337313519358    -8.291707961758     2.812640555897
H                    -0.863541366136    -9.607200914154     2.753146061702
H                     1.250273771512    -8.263809511665    -0.456508452933
