
  -OEChem-12102412493D

 21 20  0     1  0  0  0  0  0999 V2000
   -2.0388    1.0646   -3.4706 O   0  0  0  0  0  0  0  0  0  0  0  0
   -0.8078    1.4110   -3.0082 C   0  0  0  0  0  0  0  0  0  0  0  0
   -0.2818    2.4725   -3.2813 O   0  0  0  0  0  0  0  0  0  0  0  0
   -0.1908    0.3377   -2.1111 C   0  0  1  0  0  0  0  0  0  0  0  0
    1.2548    0.2155   -2.2924 N   0  0  0  0  0  0  0  0  0  0  0  0
    1.4593   -0.0997   -3.2398 H   0  0  0  0  0  0  0  0  0  0  0  0
    1.6752    1.1412   -2.2064 H   0  0  0  0  0  0  0  0  0  0  0  0
   -0.4818    0.6648   -0.6326 C   0  0  0  0  0  0  0  0  0  0  0  0
   -1.9795    0.7489   -0.3024 C   0  0  0  0  0  0  0  0  0  0  0  0
   -2.3281    0.9902    1.4514 P   0  0  0  0  0  0  0  0  0  0  0  0
   -3.7428    1.1099    1.8919 O   0  0  0  0  0  0  0  0  0  0  0  0
   -1.4254    2.2996    1.8069 O   0  0  0  0  0  0  0  0  0  0  0  0
   -1.8835    2.8690    2.4495 H   0  0  0  0  0  0  0  0  0  0  0  0
   -1.5354   -0.2593    2.1332 O   0  0  0  0  0  0  0  0  0  0  0  0
   -2.0126   -0.5846    2.9165 H   0  0  0  0  0  0  0  0  0  0  0  0
   -2.4668    1.5797   -0.8212 H   0  0  0  0  0  0  0  0  0  0  0  0
   -2.5033   -0.1665   -0.5967 H   0  0  0  0  0  0  0  0  0  0  0  0
    0.0072    1.6102   -0.3764 H   0  0  0  0  0  0  0  0  0  0  0  0
   -0.0053   -0.1201   -0.0407 H   0  0  0  0  0  0  0  0  0  0  0  0
   -0.6566   -0.6210   -2.3582 H   0  0  0  0  0  0  0  0  0  0  0  0
   -2.3591    1.8171   -4.0063 H   0  0  0  0  0  0  0  0  0  0  0  0
  1  2  1  0  0  0  0
  1 21  1  0  0  0  0
  2  3  2  0  0  0  0
  2  4  1  0  0  0  0
  4  5  1  0  0  0  0
  4  8  1  0  0  0  0
  4 20  1  0  0  0  0
  5  6  1  0  0  0  0
  5  7  1  0  0  0  0
  8  9  1  0  0  0  0
  8 18  1  0  0  0  0
  8 19  1  0  0  0  0
  9 10  1  0  0  0  0
  9 16  1  0  0  0  0
  9 17  1  0  0  0  0
 10 11  2  0  0  0  0
 10 12  1  0  0  0  0
 10 14  1  0  0  0  0
 12 13  1  0  0  0  0
 14 15  1  0  0  0  0
M  END
$$$$
