
  -OEChem-12122420533D

 50 51  0     1  0  0  0  0  0999 V2000
   -2.4515   -7.9223    0.8132 N   0  0  0  0  0  0  0  0  0  0  0  0
   -2.3284   -8.1126    2.3485 S   0  0  2  0  0  0  0  0  0  0  0  0
   -2.4520   -9.4300    3.0296 O   0  0  0  0  0  0  0  0  0  0  0  0
   -3.5559   -6.9874    2.9936 C   0  0  0  0  0  0  0  0  0  0  0  0
   -3.9878   -5.8820    2.2547 C   0  0  0  0  0  0  0  0  0  0  0  0
   -3.6067   -5.7265    1.2513 H   0  0  0  0  0  0  0  0  0  0  0  0
   -4.9291   -5.0237    2.8091 C   0  0  0  0  0  0  0  0  0  0  0  0
   -5.2821   -4.1713    2.2328 H   0  0  0  0  0  0  0  0  0  0  0  0
   -5.4512   -5.2539    4.1002 C   0  0  0  0  0  0  0  0  0  0  0  0
   -6.3745   -4.3249    4.5871 N   0  0  0  0  0  0  0  0  0  0  0  0
   -7.2864   -4.4005    5.6224 C   0  0  0  0  0  0  0  0  0  0  0  0
   -8.0423   -3.2941    5.7551 N   0  0  0  0  0  0  0  0  0  0  0  0
   -8.9532   -3.3414    6.7377 C   0  0  0  0  0  0  0  0  0  0  0  0
   -9.5804   -2.4617    6.8663 H   0  0  0  0  0  0  0  0  0  0  0  0
   -9.1134   -4.4408    7.5631 C   0  0  0  0  0  0  0  0  0  0  0  0
  -10.4334   -4.4474    8.9502 Br  0  0  0  0  0  0  0  0  0  0  0  0
   -8.2764   -5.5656    7.3428 C   0  0  0  0  0  0  0  0  0  0  0  0
   -8.3523   -6.6835    8.0988 N   0  0  0  0  0  0  0  0  0  0  0  0
   -7.5346   -7.8803    7.9034 C   0  0  1  0  0  0  0  0  0  0  0  0
   -7.2930   -8.5259    9.2713 C   0  0  0  0  0  0  0  0  0  0  0  0
   -6.6855   -9.4286    9.1798 H   0  0  0  0  0  0  0  0  0  0  0  0
   -6.7675   -7.8260    9.9273 H   0  0  0  0  0  0  0  0  0  0  0  0
   -8.2349   -8.8035    9.7556 H   0  0  0  0  0  0  0  0  0  0  0  0
   -8.1355   -8.8446    6.8304 C   0  0  0  0  0  0  0  0  0  0  0  0
   -8.5248   -8.0952    5.6710 O   0  0  0  0  0  0  0  0  0  0  0  0
   -7.8353   -7.4342    5.4787 H   0  0  0  0  0  0  0  0  0  0  0  0
   -9.4211   -9.5193    7.3116 C   0  0  0  0  0  0  0  0  0  0  0  0
   -9.8663  -10.0699    6.4786 H   0  0  0  0  0  0  0  0  0  0  0  0
  -10.1506   -8.7733    7.6425 H   0  0  0  0  0  0  0  0  0  0  0  0
   -9.2322  -10.2229    8.1268 H   0  0  0  0  0  0  0  0  0  0  0  0
   -7.0835   -9.8870    6.4206 C   0  0  0  0  0  0  0  0  0  0  0  0
   -7.4841  -10.4972    5.6069 H   0  0  0  0  0  0  0  0  0  0  0  0
   -6.1752   -9.3971    6.0515 H   0  0  0  0  0  0  0  0  0  0  0  0
   -6.8059  -10.5529    7.2434 H   0  0  0  0  0  0  0  0  0  0  0  0
   -6.5742   -7.5312    7.5147 H   0  0  0  0  0  0  0  0  0  0  0  0
   -9.1033   -6.7210    8.7763 H   0  0  0  0  0  0  0  0  0  0  0  0
   -7.3570   -5.5163    6.3558 N   0  0  0  0  0  0  0  0  0  0  0  0
   -6.4956   -3.4789    4.0431 H   0  0  0  0  0  0  0  0  0  0  0  0
   -5.0030   -6.3723    4.8289 C   0  0  0  0  0  0  0  0  0  0  0  0
   -5.3871   -6.5523    5.8214 H   0  0  0  0  0  0  0  0  0  0  0  0
   -4.0621   -7.2351    4.2690 C   0  0  0  0  0  0  0  0  0  0  0  0
   -3.7302   -8.1129    4.8161 H   0  0  0  0  0  0  0  0  0  0  0  0
   -0.7673   -7.3940    3.0115 C   0  0  0  0  0  0  0  0  0  0  0  0
    0.4338   -8.1804    2.4962 C   0  0  0  0  0  0  0  0  0  0  0  0
    1.3556   -7.7623    2.9120 H   0  0  0  0  0  0  0  0  0  0  0  0
    0.3683   -9.2309    2.7910 H   0  0  0  0  0  0  0  0  0  0  0  0
    0.5058   -8.1225    1.4055 H   0  0  0  0  0  0  0  0  0  0  0  0
   -0.7513   -6.3501    2.6876 H   0  0  0  0  0  0  0  0  0  0  0  0
   -0.8488   -7.4359    4.1008 H   0  0  0  0  0  0  0  0  0  0  0  0
   -1.8179   -8.5559    0.3218 H   0  0  0  0  0  0  0  0  0  0  0  0
  1  2  2  0  0  0  0
  1 50  1  0  0  0  0
  2  3  2  0  0  0  0
  2  4  1  0  0  0  0
  2 43  1  0  0  0  0
  4  5  2  0  0  0  0
  4 41  1  0  0  0  0
  5  6  1  0  0  0  0
  5  7  1  0  0  0  0
  7  8  1  0  0  0  0
  7  9  2  0  0  0  0
  9 10  1  0  0  0  0
  9 39  1  0  0  0  0
 10 11  1  0  0  0  0
 10 38  1  0  0  0  0
 11 12  1  0  0  0  0
 11 37  2  0  0  0  0
 12 13  2  0  0  0  0
 13 14  1  0  0  0  0
 13 15  1  0  0  0  0
 15 16  1  0  0  0  0
 15 17  2  0  0  0  0
 17 18  1  0  0  0  0
 17 37  1  0  0  0  0
 18 19  1  0  0  0  0
 18 36  1  0  0  0  0
 19 20  1  0  0  0  0
 19 24  1  0  0  0  0
 19 35  1  0  0  0  0
 20 21  1  0  0  0  0
 20 22  1  0  0  0  0
 20 23  1  0  0  0  0
 24 25  1  0  0  0  0
 24 27  1  0  0  0  0
 24 31  1  0  0  0  0
 25 26  1  0  0  0  0
 27 28  1  0  0  0  0
 27 29  1  0  0  0  0
 27 30  1  0  0  0  0
 31 32  1  0  0  0  0
 31 33  1  0  0  0  0
 31 34  1  0  0  0  0
 39 40  1  0  0  0  0
 39 41  2  0  0  0  0
 41 42  1  0  0  0  0
 43 44  1  0  0  0  0
 43 48  1  0  0  0  0
 43 49  1  0  0  0  0
 44 45  1  0  0  0  0
 44 46  1  0  0  0  0
 44 47  1  0  0  0  0
M  END
$$$$
