
  -OEChem-12102412493D

 47 48  0     1  0  0  0  0  0999 V2000
   -0.1037   -8.4896   -0.7669 N   0  0  0  0  0  0  0  0  0  0  0  0
    0.0010   -8.6125    0.7770 S   0  0  2  0  0  0  0  0  0  0  0  0
   -0.0775   -9.9064    1.5077 O   0  0  0  0  0  0  0  0  0  0  0  0
   -1.2887   -7.5208    1.3564 C   0  0  0  0  0  0  0  0  0  0  0  0
   -1.7884   -6.4938    0.5514 C   0  0  0  0  0  0  0  0  0  0  0  0
   -1.4140   -6.3772   -0.4597 H   0  0  0  0  0  0  0  0  0  0  0  0
   -2.7857   -5.6642    1.0522 C   0  0  0  0  0  0  0  0  0  0  0  0
   -3.1908   -4.8732    0.4250 H   0  0  0  0  0  0  0  0  0  0  0  0
   -3.2964   -5.8492    2.3536 C   0  0  0  0  0  0  0  0  0  0  0  0
   -4.2721   -4.9510    2.7965 N   0  0  0  0  0  0  0  0  0  0  0  0
   -5.1883   -5.0487    3.8266 C   0  0  0  0  0  0  0  0  0  0  0  0
   -5.9325   -3.9390    3.9996 N   0  0  0  0  0  0  0  0  0  0  0  0
   -6.8338   -4.0074    4.9902 C   0  0  0  0  0  0  0  0  0  0  0  0
   -7.4478   -3.1244    5.1555 H   0  0  0  0  0  0  0  0  0  0  0  0
   -7.0013   -5.1335    5.7786 C   0  0  0  0  0  0  0  0  0  0  0  0
   -8.3094   -5.1764    7.1773 Br  0  0  0  0  0  0  0  0  0  0  0  0
   -6.1844   -6.2612    5.5033 C   0  0  0  0  0  0  0  0  0  0  0  0
   -6.2903   -7.4277    6.1847 N   0  0  0  0  0  0  0  0  0  0  0  0
   -5.5778   -8.6503    5.8041 C   0  0  2  0  0  0  0  0  0  0  0  0
   -6.3897   -9.8728    6.2271 C   0  0  0  0  0  0  0  0  0  0  0  0
   -5.8184  -10.7821    6.0259 H   0  0  0  0  0  0  0  0  0  0  0  0
   -6.6236   -9.8519    7.2971 H   0  0  0  0  0  0  0  0  0  0  0  0
   -7.3309   -9.9214    5.6713 H   0  0  0  0  0  0  0  0  0  0  0  0
   -4.1305   -8.6397    6.3544 C   0  0  2  0  0  0  0  0  0  0  0  0
   -3.3594   -9.6703    5.7242 O   0  0  0  0  0  0  0  0  0  0  0  0
   -3.3536   -9.5074    4.7664 H   0  0  0  0  0  0  0  0  0  0  0  0
   -4.0286   -8.8578    7.8570 C   0  0  0  0  0  0  0  0  0  0  0  0
   -2.9909   -8.7373    8.1793 H   0  0  0  0  0  0  0  0  0  0  0  0
   -4.6431   -8.1277    8.3929 H   0  0  0  0  0  0  0  0  0  0  0  0
   -4.3516   -9.8659    8.1305 H   0  0  0  0  0  0  0  0  0  0  0  0
   -3.7069   -7.6561    6.1143 H   0  0  0  0  0  0  0  0  0  0  0  0
   -5.4957   -8.6384    4.7115 H   0  0  0  0  0  0  0  0  0  0  0  0
   -7.0181   -7.4870    6.8852 H   0  0  0  0  0  0  0  0  0  0  0  0
   -5.2680   -6.1878    4.5204 N   0  0  0  0  0  0  0  0  0  0  0  0
   -4.3863   -4.0980    2.2624 H   0  0  0  0  0  0  0  0  0  0  0  0
   -2.7773   -6.8876    3.1510 C   0  0  0  0  0  0  0  0  0  0  0  0
   -3.1574   -7.0282    4.1511 H   0  0  0  0  0  0  0  0  0  0  0  0
   -1.7789   -7.7191    2.6482 C   0  0  0  0  0  0  0  0  0  0  0  0
   -1.3816   -8.5286    3.2548 H   0  0  0  0  0  0  0  0  0  0  0  0
    1.5155   -7.7976    1.4359 C   0  0  0  0  0  0  0  0  0  0  0  0
    2.7604   -8.5447    0.9684 C   0  0  0  0  0  0  0  0  0  0  0  0
    3.6542   -8.0684    1.3827 H   0  0  0  0  0  0  0  0  0  0  0  0
    2.7394   -9.5856    1.3014 H   0  0  0  0  0  0  0  0  0  0  0  0
    2.8481   -8.5230   -0.1224 H   0  0  0  0  0  0  0  0  0  0  0  0
    1.4879   -6.7669    1.0730 H   0  0  0  0  0  0  0  0  0  0  0  0
    1.4179   -7.8034    2.5246 H   0  0  0  0  0  0  0  0  0  0  0  0
    0.5638   -9.1157   -1.2215 H   0  0  0  0  0  0  0  0  0  0  0  0
  1  2  2  0  0  0  0
  1 47  1  0  0  0  0
  2  3  2  0  0  0  0
  2  4  1  0  0  0  0
  2 40  1  0  0  0  0
  4  5  2  0  0  0  0
  4 38  1  0  0  0  0
  5  6  1  0  0  0  0
  5  7  1  0  0  0  0
  7  8  1  0  0  0  0
  7  9  2  0  0  0  0
  9 10  1  0  0  0  0
  9 36  1  0  0  0  0
 10 11  1  0  0  0  0
 10 35  1  0  0  0  0
 11 12  1  0  0  0  0
 11 34  2  0  0  0  0
 12 13  2  0  0  0  0
 13 14  1  0  0  0  0
 13 15  1  0  0  0  0
 15 16  1  0  0  0  0
 15 17  2  0  0  0  0
 17 18  1  0  0  0  0
 17 34  1  0  0  0  0
 18 19  1  0  0  0  0
 18 33  1  0  0  0  0
 19 20  1  0  0  0  0
 19 24  1  0  0  0  0
 19 32  1  0  0  0  0
 20 21  1  0  0  0  0
 20 22  1  0  0  0  0
 20 23  1  0  0  0  0
 24 25  1  0  0  0  0
 24 27  1  0  0  0  0
 24 31  1  0  0  0  0
 25 26  1  0  0  0  0
 27 28  1  0  0  0  0
 27 29  1  0  0  0  0
 27 30  1  0  0  0  0
 36 37  1  0  0  0  0
 36 38  2  0  0  0  0
 38 39  1  0  0  0  0
 40 41  1  0  0  0  0
 40 45  1  0  0  0  0
 40 46  1  0  0  0  0
 41 42  1  0  0  0  0
 41 43  1  0  0  0  0
 41 44  1  0  0  0  0
M  END
$$$$
