
  -OEChem-12102412493D

 13 12  0     0  0  0  0  0  0999 V2000
    1.6157   -1.3679   -0.9881 C   0  0  0  0  0  0  0  0  0  0  0  0
    0.7807   -2.3704   -0.7221 C   0  0  0  0  0  0  0  0  0  0  0  0
    0.1534   -2.6105    0.9400 S   0  0  0  0  0  0  0  0  0  0  0  0
    0.2630   -4.0458    1.2429 O   0  0  0  0  0  0  0  0  0  0  0  0
    0.7547   -1.5884    1.8117 O   0  0  0  0  0  0  0  0  0  0  0  0
   -1.5910   -2.2390    0.7601 C   0  0  0  0  0  0  0  0  0  0  0  0
   -2.1132   -1.1612    1.3422 C   0  0  0  0  0  0  0  0  0  0  0  0
   -3.1784   -0.9543    1.2776 H   0  0  0  0  0  0  0  0  0  0  0  0
   -1.4858   -0.4745    1.9049 H   0  0  0  0  0  0  0  0  0  0  0  0
   -2.1522   -2.9857    0.2047 H   0  0  0  0  0  0  0  0  0  0  0  0
    0.4672   -3.1308   -1.4324 H   0  0  0  0  0  0  0  0  0  0  0  0
    2.0376   -1.2436   -1.9822 H   0  0  0  0  0  0  0  0  0  0  0  0
    1.9020   -0.6622   -0.2124 H   0  0  0  0  0  0  0  0  0  0  0  0
  1  2  2  0  0  0  0
  1 12  1  0  0  0  0
  1 13  1  0  0  0  0
  2  3  1  0  0  0  0
  2 11  1  0  0  0  0
  3  4  2  0  0  0  0
  3  5  2  0  0  0  0
  3  6  1  0  0  0  0
  6  7  2  0  0  0  0
  6 10  1  0  0  0  0
  7  8  1  0  0  0  0
  7  9  1  0  0  0  0
M  END
$$$$
