18
0 1 C5H8N4S
C                     3.031324223563    -0.742425640996     0.523303031417
H                     3.795449273509    -1.364485946013     0.058713910183
N                     2.025305989286    -0.347317365812    -0.260983855468
C                     1.117777148521     0.426032041974     0.368166730950
S                    -0.198271836830     0.974483431854    -0.666444477342
C                    -1.243067753763     1.914353699864     0.512258028801
C                    -2.110289166391     1.029166805602     1.405969311747
H                    -2.732959432811     1.652921313793     2.058450982709
H                    -2.770469286247     0.392705419057     0.809430694424
H                    -1.487512233721     0.390752199513     2.036762707648
H                    -0.587437536607     2.557767204932     1.101680011698
H                    -1.857796604865     2.551472546760    -0.130879859609
N                     1.159986259633     0.792043910404     1.651403723513
C                     2.222619914821     0.317909564728     2.333049864002
N                     2.299669677767     0.620911614754     3.657383081543
H                     1.698756659366     1.353035112102     4.009826375324
H                     3.176511516210     0.439347839253     4.126467743103
N                     3.201302695931    -0.455804038689     1.815778304472
