47
0 1 BrC16H22N5O2S
N                    -2.432612190767    -0.380643258465    -1.496881035772
S                    -3.651017275495     0.076018899281    -0.648811615336
O                    -3.679278450106     1.341799690358     0.133275804683
C                    -3.932818967722    -1.311671737300     0.437525839783
C                    -3.498723619751    -2.596638678957     0.098579692311
H                    -2.941799637052    -2.750021429026    -0.819273723924
C                    -3.766324053056    -3.648683826250     0.964778364144
H                    -3.425017658806    -4.650122301649     0.710138528500
C                    -4.462450942703    -3.436437281845     2.175310255079
N                    -4.679489551883    -4.560813164348     2.976233446864
C                    -5.304388527502    -4.721484552603     4.198217134813
N                    -5.850087941882    -3.667687966329     4.817055549674
C                    -6.431317488959    -3.939181413495     6.001247851327
H                    -6.882727039004    -3.098920987072     6.524602890280
C                    -6.468307796210    -5.204065249200     6.548090113853
Br                   -7.307041668091    -5.524723508530     8.239788554666
C                    -5.860718678119    -6.265687101686     5.814165810582
N                    -5.829634851098    -7.533114147190     6.283028604012
C                    -5.326458286415    -8.673955241016     5.521604305212
C                    -6.400630084462    -9.240976411738     4.585087046887
H                    -5.993139311262   -10.062465319091     3.985384531939
H                    -7.250904200036    -9.619789288565     5.158309883470
H                    -6.749968192830    -8.459777580800     3.904758864575
C                    -4.800649696157    -9.717978209965     6.516215018733
O                    -5.901149558007   -10.018784645533     7.394956386399
H                    -5.577743265547   -10.584884555773     8.112420267400
C                    -3.578235406129    -9.235470862621     7.294324544865
H                    -3.236913522862   -10.004213523491     7.997913716909
H                    -2.747950811519    -9.020121297138     6.613584874354
H                    -3.809505199202    -8.326970976383     7.857254101518
H                    -4.536460958290   -10.617549865930     5.941671202371
H                    -4.484398064797    -8.317808341773     4.924045127304
H                    -6.369039374467    -7.750111581091     7.113711584393
N                    -5.286518297766    -5.997274196151     4.631665129718
H                    -4.313470380807    -5.436106355100     2.622573484716
C                    -4.882736659930    -2.133972915796     2.506183084521
H                    -5.402199711626    -1.963537699994     3.438027311194
C                    -4.612245506152    -1.080261341841     1.633781281005
H                    -4.908887856833    -0.068309681631     1.894250045960
C                    -5.204788623863     0.108612267796    -1.638115644536
C                    -5.124205343594     1.190569670224    -2.710162531493
H                    -6.059321144870     1.219730028044    -3.277844692177
H                    -4.963273584275     2.174049643836    -2.260980420623
H                    -4.313313696727     0.986996345594    -3.416816486270
H                    -5.314647225701    -0.891894898046    -2.064581865827
H                    -6.015536853123     0.292679300217    -0.928514749498
H                    -2.148381982609     0.362253921760    -2.138603745567
