
  -OEChem-12122420533D

 13 12  0     0  0  0  0  0  0999 V2000
    0.8477   -0.3748   -0.7154 C   0  0  0  0  0  0  0  0  0  0  0  0
    0.3495   -1.6089   -0.7678 C   0  0  0  0  0  0  0  0  0  0  0  0
   -0.0120   -2.5007    0.7438 S   0  0  0  0  0  0  0  0  0  0  0  0
    0.4928   -3.8731    0.5785 O   0  0  0  0  0  0  0  0  0  0  0  0
    0.3941   -1.6611    1.8820 O   0  0  0  0  0  0  0  0  0  0  0  0
   -1.8030   -2.5567    0.7287 C   0  0  0  0  0  0  0  0  0  0  0  0
   -2.4361   -3.7120    0.5325 C   0  0  0  0  0  0  0  0  0  0  0  0
   -3.5216   -3.7643    0.5588 H   0  0  0  0  0  0  0  0  0  0  0  0
   -1.8775   -4.6282    0.3573 H   0  0  0  0  0  0  0  0  0  0  0  0
   -2.2803   -1.6013    0.9289 H   0  0  0  0  0  0  0  0  0  0  0  0
    0.1646   -2.1769   -1.6754 H   0  0  0  0  0  0  0  0  0  0  0  0
    1.1058    0.1613   -1.6252 H   0  0  0  0  0  0  0  0  0  0  0  0
    1.0198    0.1141    0.2404 H   0  0  0  0  0  0  0  0  0  0  0  0
  1  2  2  0  0  0  0
  1 12  1  0  0  0  0
  1 13  1  0  0  0  0
  2  3  1  0  0  0  0
  2 11  1  0  0  0  0
  3  4  2  0  0  0  0
  3  5  2  0  0  0  0
  3  6  1  0  0  0  0
  6  7  2  0  0  0  0
  6 10  1  0  0  0  0
  7  8  1  0  0  0  0
  7  9  1  0  0  0  0
M  END
$$$$
