
  -OEChem-12102412493D

 47 48  0     1  0  0  0  0  0999 V2000
    0.9780   -8.4120    1.6043 N   0  0  0  0  0  0  0  0  0  0  0  0
    0.7047   -7.1785    0.7013 S   0  0  2  0  0  0  0  0  0  0  0  0
    1.7162   -6.1222    0.4246 O   0  0  0  0  0  0  0  0  0  0  0  0
   -0.7423   -6.4430    1.4420 C   0  0  0  0  0  0  0  0  0  0  0  0
   -1.6197   -7.1932    2.2262 C   0  0  0  0  0  0  0  0  0  0  0  0
   -1.3970   -8.2372    2.4193 H   0  0  0  0  0  0  0  0  0  0  0  0
   -2.7537   -6.5961    2.7720 C   0  0  0  0  0  0  0  0  0  0  0  0
   -3.4355   -7.1665    3.3841 H   0  0  0  0  0  0  0  0  0  0  0  0
   -3.0149   -5.2310    2.5350 C   0  0  0  0  0  0  0  0  0  0  0  0
   -4.1291   -4.5489    3.0258 N   0  0  0  0  0  0  0  0  0  0  0  0
   -5.1410   -4.9278    3.8882 C   0  0  0  0  0  0  0  0  0  0  0  0
   -6.0677   -3.9667    4.0758 N   0  0  0  0  0  0  0  0  0  0  0  0
   -7.0690   -4.2962    4.9044 C   0  0  0  0  0  0  0  0  0  0  0  0
   -7.8340   -3.5410    5.0728 H   0  0  0  0  0  0  0  0  0  0  0  0
   -7.1526   -5.5280    5.5303 C   0  0  0  0  0  0  0  0  0  0  0  0
   -8.6063   -5.9411    6.7063 Br  0  0  0  0  0  0  0  0  0  0  0  0
   -6.1213   -6.4716    5.2785 C   0  0  0  0  0  0  0  0  0  0  0  0
   -6.0889   -7.6869    5.8681 N   0  0  0  0  0  0  0  0  0  0  0  0
   -5.0900   -8.7106    5.5668 C   0  0  2  0  0  0  0  0  0  0  0  0
   -5.4410   -9.4869    4.2915 C   0  0  0  0  0  0  0  0  0  0  0  0
   -4.6492  -10.2046    4.0496 H   0  0  0  0  0  0  0  0  0  0  0  0
   -6.3781  -10.0349    4.4209 H   0  0  0  0  0  0  0  0  0  0  0  0
   -5.5471   -8.7969    3.4504 H   0  0  0  0  0  0  0  0  0  0  0  0
   -4.9567   -9.6236    6.7935 C   0  0  2  0  0  0  0  0  0  0  0  0
   -6.2805  -10.1221    7.0636 O   0  0  0  0  0  0  0  0  0  0  0  0
   -6.2596  -10.6166    7.8972 H   0  0  0  0  0  0  0  0  0  0  0  0
   -4.3686   -8.9081    8.0079 C   0  0  0  0  0  0  0  0  0  0  0  0
   -4.2940   -9.5913    8.8623 H   0  0  0  0  0  0  0  0  0  0  0  0
   -3.3598   -8.5430    7.7890 H   0  0  0  0  0  0  0  0  0  0  0  0
   -4.9905   -8.0565    8.2976 H   0  0  0  0  0  0  0  0  0  0  0  0
   -4.3021  -10.4603    6.5105 H   0  0  0  0  0  0  0  0  0  0  0  0
   -4.1344   -8.2002    5.4248 H   0  0  0  0  0  0  0  0  0  0  0  0
   -6.9017   -7.9900    6.3931 H   0  0  0  0  0  0  0  0  0  0  0  0
   -5.1206   -6.1456    4.4368 N   0  0  0  0  0  0  0  0  0  0  0  0
   -4.2447   -3.5918    2.7147 H   0  0  0  0  0  0  0  0  0  0  0  0
   -2.1108   -4.4882    1.7454 C   0  0  0  0  0  0  0  0  0  0  0  0
   -2.2933   -3.4300    1.5712 H   0  0  0  0  0  0  0  0  0  0  0  0
   -0.9802   -5.0868    1.2029 C   0  0  0  0  0  0  0  0  0  0  0  0
   -0.2700   -4.5067    0.6213 H   0  0  0  0  0  0  0  0  0  0  0  0
    0.0779   -7.6669   -0.9609 C   0  0  0  0  0  0  0  0  0  0  0  0
    1.1631   -8.4044   -1.7386 C   0  0  0  0  0  0  0  0  0  0  0  0
    0.7903   -8.6695   -2.7328 H   0  0  0  0  0  0  0  0  0  0  0  0
    2.0509   -7.7783   -1.8594 H   0  0  0  0  0  0  0  0  0  0  0  0
    1.4501   -9.3323   -1.2338 H   0  0  0  0  0  0  0  0  0  0  0  0
   -0.8025   -8.2896   -0.7822 H   0  0  0  0  0  0  0  0  0  0  0  0
   -0.2257   -6.7417   -1.4575 H   0  0  0  0  0  0  0  0  0  0  0  0
    1.8211   -8.8990    1.2936 H   0  0  0  0  0  0  0  0  0  0  0  0
  1  2  2  0  0  0  0
  1 47  1  0  0  0  0
  2  3  2  0  0  0  0
  2  4  1  0  0  0  0
  2 40  1  0  0  0  0
  4  5  2  0  0  0  0
  4 38  1  0  0  0  0
  5  6  1  0  0  0  0
  5  7  1  0  0  0  0
  7  8  1  0  0  0  0
  7  9  2  0  0  0  0
  9 10  1  0  0  0  0
  9 36  1  0  0  0  0
 10 11  1  0  0  0  0
 10 35  1  0  0  0  0
 11 12  1  0  0  0  0
 11 34  2  0  0  0  0
 12 13  2  0  0  0  0
 13 14  1  0  0  0  0
 13 15  1  0  0  0  0
 15 16  1  0  0  0  0
 15 17  2  0  0  0  0
 17 18  1  0  0  0  0
 17 34  1  0  0  0  0
 18 19  1  0  0  0  0
 18 33  1  0  0  0  0
 19 20  1  0  0  0  0
 19 24  1  0  0  0  0
 19 32  1  0  0  0  0
 20 21  1  0  0  0  0
 20 22  1  0  0  0  0
 20 23  1  0  0  0  0
 24 25  1  0  0  0  0
 24 27  1  0  0  0  0
 24 31  1  0  0  0  0
 25 26  1  0  0  0  0
 27 28  1  0  0  0  0
 27 29  1  0  0  0  0
 27 30  1  0  0  0  0
 36 37  1  0  0  0  0
 36 38  2  0  0  0  0
 38 39  1  0  0  0  0
 40 41  1  0  0  0  0
 40 45  1  0  0  0  0
 40 46  1  0  0  0  0
 41 42  1  0  0  0  0
 41 43  1  0  0  0  0
 41 44  1  0  0  0  0
M  END
$$$$
