50
0 1 BrC17H24N5O2S
N                    -2.314086761615    -7.655452578609     0.679685311377
S                    -2.300587339844    -7.984357953640     2.196961699407
O                    -2.463866815024    -9.359970395559     2.742285101628
C                    -3.575467296015    -6.922786949792     2.853603973271
C                    -3.949582296319    -5.745276103102     2.198633830600
H                    -3.491700898405    -5.491011745147     1.248925941281
C                    -4.927845249398    -4.938580371131     2.765072625926
H                    -5.229763062944    -4.026070364115     2.255345789310
C                    -5.548529709542    -5.292288297902     3.983921081779
N                    -6.506672720641    -4.408107962196     4.481203289682
C                    -7.359949154870    -4.483784060480     5.566603910634
N                    -8.101340127417    -3.371395184822     5.740054113594
C                    -8.940759834130    -3.405204851280     6.785508782069
H                    -9.550922547376    -2.519913582105     6.952542462637
C                    -9.049210332453    -4.497999252638     7.627750336842
Br                  -10.270533152151    -4.491218301776     9.102665840444
C                    -8.234560088029    -5.629677410224     7.355645245489
N                    -8.292096504833    -6.759465971242     8.091826351978
C                    -7.432591252660    -7.921800105491     7.871586384718
C                    -6.068828485515    -7.722241897071     8.546857897774
H                    -5.361982058403    -8.506027716638     8.260394291907
H                    -5.649360648710    -6.762504919544     8.234430540156
H                    -6.172547165888    -7.722602123874     9.635395793445
C                    -8.206415438239    -9.175646622232     8.344802274552
O                    -8.583060969256    -8.879722084561     9.711175086577
H                    -9.171798588433    -9.584346295478    10.024241557972
C                    -7.324916226496   -10.428723149089     8.306505354683
H                    -7.920227247943   -11.314383450575     8.555642186554
H                    -6.509415615461   -10.355774403690     9.028608156574
H                    -6.899847731555   -10.585614656279     7.309433908923
C                    -9.464927403523    -9.381445475706     7.490763179543
H                   -10.044033590001   -10.233756669536     7.865743617424
H                   -10.102513757317    -8.494684623207     7.509444558566
H                    -9.199676993293    -9.595147664907     6.450446033309
H                    -7.285621580040    -8.012428645623     6.792823455775
H                    -8.838687725690    -6.758108986246     8.945891450754
N                    -7.382107815555    -5.591915853648     6.312038844841
H                    -6.621672956428    -3.537035668796     3.976942959488
C                    -5.165491855406    -6.487576466685     4.623822157236
H                    -5.644420858825    -6.771434695014     5.548409623357
C                    -4.182279010449    -7.294299509491     4.053297240702
H                    -3.897430326427    -8.227894407838     4.529934456998
C                    -0.792160085969    -7.333043351265     3.030063019641
C                     0.447305690815    -8.062941573774     2.522878292136
H                     1.335791650437    -7.685730606323     3.038408303007
H                     0.371432849736    -9.137457617472     2.708736091988
H                     0.591441286091    -7.898421966508     1.450301677623
H                    -0.762656789566    -6.262469063941     2.811206067606
H                    -0.946716720428    -7.480956626228     4.101980909071
H                    -1.636394035274    -8.237174646791     0.182834689824
