
  -OEChem-12122420533D

 47 48  0     1  0  0  0  0  0999 V2000
   -5.2507   -0.1547   -1.9059 N   0  0  0  0  0  0  0  0  0  0  0  0
   -4.1505   -1.2330   -2.0969 S   0  0  2  0  0  0  0  0  0  0  0  0
   -3.9905   -2.0352   -3.3409 O   0  0  0  0  0  0  0  0  0  0  0  0
   -4.4036   -2.3269   -0.7102 C   0  0  0  0  0  0  0  0  0  0  0  0
   -4.9946   -1.8803    0.4730 C   0  0  0  0  0  0  0  0  0  0  0  0
   -5.3509   -0.8575    0.5356 H   0  0  0  0  0  0  0  0  0  0  0  0
   -5.1493   -2.7506    1.5502 C   0  0  0  0  0  0  0  0  0  0  0  0
   -5.6082   -2.4170    2.4698 H   0  0  0  0  0  0  0  0  0  0  0  0
   -4.7130   -4.0861    1.4397 C   0  0  0  0  0  0  0  0  0  0  0  0
   -4.8275   -5.0377    2.4566 N   0  0  0  0  0  0  0  0  0  0  0  0
   -5.3221   -4.9632    3.7446 C   0  0  0  0  0  0  0  0  0  0  0  0
   -5.7887   -3.8019    4.2189 N   0  0  0  0  0  0  0  0  0  0  0  0
   -6.2417   -3.8439    5.4865 C   0  0  0  0  0  0  0  0  0  0  0  0
   -6.6275   -2.9125    5.8955 H   0  0  0  0  0  0  0  0  0  0  0  0
   -6.2304   -4.9910    6.2512 C   0  0  0  0  0  0  0  0  0  0  0  0
   -6.8826   -4.9840    8.0518 Br  0  0  0  0  0  0  0  0  0  0  0  0
   -5.7170   -6.1824    5.6583 C   0  0  0  0  0  0  0  0  0  0  0  0
   -5.6511   -7.3489    6.3386 N   0  0  0  0  0  0  0  0  0  0  0  0
   -5.2561   -8.6214    5.7384 C   0  0  2  0  0  0  0  0  0  0  0  0
   -6.4294   -9.2883    5.0099 C   0  0  0  0  0  0  0  0  0  0  0  0
   -6.1031  -10.2141    4.5233 H   0  0  0  0  0  0  0  0  0  0  0  0
   -7.2315   -9.5307    5.7120 H   0  0  0  0  0  0  0  0  0  0  0  0
   -6.8201   -8.6162    4.2414 H   0  0  0  0  0  0  0  0  0  0  0  0
   -4.6691   -9.5081    6.8451 C   0  0  2  0  0  0  0  0  0  0  0  0
   -5.6902   -9.6100    7.8553 O   0  0  0  0  0  0  0  0  0  0  0  0
   -5.3193  -10.0688    8.6246 H   0  0  0  0  0  0  0  0  0  0  0  0
   -3.3657   -8.9580    7.4205 C   0  0  0  0  0  0  0  0  0  0  0  0
   -2.9822   -9.6141    8.2111 H   0  0  0  0  0  0  0  0  0  0  0  0
   -2.5970   -8.8947    6.6431 H   0  0  0  0  0  0  0  0  0  0  0  0
   -3.5173   -7.9597    7.8403 H   0  0  0  0  0  0  0  0  0  0  0  0
   -4.4863  -10.5012    6.4098 H   0  0  0  0  0  0  0  0  0  0  0  0
   -4.4642   -8.4070    5.0171 H   0  0  0  0  0  0  0  0  0  0  0  0
   -6.1126   -7.4030    7.2399 H   0  0  0  0  0  0  0  0  0  0  0  0
   -5.2688   -6.1425    4.3945 N   0  0  0  0  0  0  0  0  0  0  0  0
   -4.5061   -5.9708    2.2304 H   0  0  0  0  0  0  0  0  0  0  0  0
   -4.1287   -4.5216    0.2312 C   0  0  0  0  0  0  0  0  0  0  0  0
   -3.8042   -5.5554    0.1318 H   0  0  0  0  0  0  0  0  0  0  0  0
   -3.9741   -3.6500   -0.8400 C   0  0  0  0  0  0  0  0  0  0  0  0
   -3.5480   -3.9909   -1.7787 H   0  0  0  0  0  0  0  0  0  0  0  0
   -2.4664   -0.5679   -1.7564 C   0  0  0  0  0  0  0  0  0  0  0  0
   -2.0893    0.4747   -2.8038 C   0  0  0  0  0  0  0  0  0  0  0  0
   -1.0797    0.8487   -2.6075 H   0  0  0  0  0  0  0  0  0  0  0  0
   -2.1077    0.0437   -3.8082 H   0  0  0  0  0  0  0  0  0  0  0  0
   -2.7715    1.3302   -2.7732 H   0  0  0  0  0  0  0  0  0  0  0  0
   -2.5036   -0.1491   -0.7474 H   0  0  0  0  0  0  0  0  0  0  0  0
   -1.7902   -1.4266   -1.7692 H   0  0  0  0  0  0  0  0  0  0  0  0
   -5.2232    0.5215   -2.6719 H   0  0  0  0  0  0  0  0  0  0  0  0
  1  2  2  0  0  0  0
  1 47  1  0  0  0  0
  2  3  2  0  0  0  0
  2  4  1  0  0  0  0
  2 40  1  0  0  0  0
  4  5  2  0  0  0  0
  4 38  1  0  0  0  0
  5  6  1  0  0  0  0
  5  7  1  0  0  0  0
  7  8  1  0  0  0  0
  7  9  2  0  0  0  0
  9 10  1  0  0  0  0
  9 36  1  0  0  0  0
 10 11  1  0  0  0  0
 10 35  1  0  0  0  0
 11 12  1  0  0  0  0
 11 34  2  0  0  0  0
 12 13  2  0  0  0  0
 13 14  1  0  0  0  0
 13 15  1  0  0  0  0
 15 16  1  0  0  0  0
 15 17  2  0  0  0  0
 17 18  1  0  0  0  0
 17 34  1  0  0  0  0
 18 19  1  0  0  0  0
 18 33  1  0  0  0  0
 19 20  1  0  0  0  0
 19 24  1  0  0  0  0
 19 32  1  0  0  0  0
 20 21  1  0  0  0  0
 20 22  1  0  0  0  0
 20 23  1  0  0  0  0
 24 25  1  0  0  0  0
 24 27  1  0  0  0  0
 24 31  1  0  0  0  0
 25 26  1  0  0  0  0
 27 28  1  0  0  0  0
 27 29  1  0  0  0  0
 27 30  1  0  0  0  0
 36 37  1  0  0  0  0
 36 38  2  0  0  0  0
 38 39  1  0  0  0  0
 40 41  1  0  0  0  0
 40 45  1  0  0  0  0
 40 46  1  0  0  0  0
 41 42  1  0  0  0  0
 41 43  1  0  0  0  0
 41 44  1  0  0  0  0
M  END
$$$$
