
  -OEChem-12122420533D

 50 51  0     1  0  0  0  0  0999 V2000
   -2.3141   -7.6555    0.6797 N   0  0  0  0  0  0  0  0  0  0  0  0
   -2.3006   -7.9844    2.1970 S   0  0  2  0  0  0  0  0  0  0  0  0
   -2.4639   -9.3600    2.7423 O   0  0  0  0  0  0  0  0  0  0  0  0
   -3.5755   -6.9228    2.8536 C   0  0  0  0  0  0  0  0  0  0  0  0
   -3.9496   -5.7453    2.1986 C   0  0  0  0  0  0  0  0  0  0  0  0
   -3.4917   -5.4910    1.2489 H   0  0  0  0  0  0  0  0  0  0  0  0
   -4.9278   -4.9386    2.7651 C   0  0  0  0  0  0  0  0  0  0  0  0
   -5.2298   -4.0261    2.2553 H   0  0  0  0  0  0  0  0  0  0  0  0
   -5.5485   -5.2923    3.9839 C   0  0  0  0  0  0  0  0  0  0  0  0
   -6.5067   -4.4081    4.4812 N   0  0  0  0  0  0  0  0  0  0  0  0
   -7.3599   -4.4838    5.5666 C   0  0  0  0  0  0  0  0  0  0  0  0
   -8.1013   -3.3714    5.7401 N   0  0  0  0  0  0  0  0  0  0  0  0
   -8.9408   -3.4052    6.7855 C   0  0  0  0  0  0  0  0  0  0  0  0
   -9.5509   -2.5199    6.9525 H   0  0  0  0  0  0  0  0  0  0  0  0
   -9.0492   -4.4980    7.6278 C   0  0  0  0  0  0  0  0  0  0  0  0
  -10.2705   -4.4912    9.1027 Br  0  0  0  0  0  0  0  0  0  0  0  0
   -8.2346   -5.6297    7.3556 C   0  0  0  0  0  0  0  0  0  0  0  0
   -8.2921   -6.7595    8.0918 N   0  0  0  0  0  0  0  0  0  0  0  0
   -7.4326   -7.9218    7.8716 C   0  0  1  0  0  0  0  0  0  0  0  0
   -6.0688   -7.7222    8.5469 C   0  0  0  0  0  0  0  0  0  0  0  0
   -5.3620   -8.5060    8.2604 H   0  0  0  0  0  0  0  0  0  0  0  0
   -5.6494   -6.7625    8.2344 H   0  0  0  0  0  0  0  0  0  0  0  0
   -6.1725   -7.7226    9.6354 H   0  0  0  0  0  0  0  0  0  0  0  0
   -8.2064   -9.1756    8.3448 C   0  0  0  0  0  0  0  0  0  0  0  0
   -8.5831   -8.8797    9.7112 O   0  0  0  0  0  0  0  0  0  0  0  0
   -9.1718   -9.5843   10.0242 H   0  0  0  0  0  0  0  0  0  0  0  0
   -7.3249  -10.4287    8.3065 C   0  0  0  0  0  0  0  0  0  0  0  0
   -7.9202  -11.3144    8.5556 H   0  0  0  0  0  0  0  0  0  0  0  0
   -6.5094  -10.3558    9.0286 H   0  0  0  0  0  0  0  0  0  0  0  0
   -6.8998  -10.5856    7.3094 H   0  0  0  0  0  0  0  0  0  0  0  0
   -9.4649   -9.3814    7.4908 C   0  0  0  0  0  0  0  0  0  0  0  0
  -10.0440  -10.2338    7.8657 H   0  0  0  0  0  0  0  0  0  0  0  0
  -10.1025   -8.4947    7.5094 H   0  0  0  0  0  0  0  0  0  0  0  0
   -9.1997   -9.5951    6.4504 H   0  0  0  0  0  0  0  0  0  0  0  0
   -7.2856   -8.0124    6.7928 H   0  0  0  0  0  0  0  0  0  0  0  0
   -8.8387   -6.7581    8.9459 H   0  0  0  0  0  0  0  0  0  0  0  0
   -7.3821   -5.5919    6.3120 N   0  0  0  0  0  0  0  0  0  0  0  0
   -6.6217   -3.5370    3.9769 H   0  0  0  0  0  0  0  0  0  0  0  0
   -5.1655   -6.4876    4.6238 C   0  0  0  0  0  0  0  0  0  0  0  0
   -5.6444   -6.7714    5.5484 H   0  0  0  0  0  0  0  0  0  0  0  0
   -4.1823   -7.2943    4.0533 C   0  0  0  0  0  0  0  0  0  0  0  0
   -3.8974   -8.2279    4.5299 H   0  0  0  0  0  0  0  0  0  0  0  0
   -0.7922   -7.3330    3.0301 C   0  0  0  0  0  0  0  0  0  0  0  0
    0.4473   -8.0629    2.5229 C   0  0  0  0  0  0  0  0  0  0  0  0
    1.3358   -7.6857    3.0384 H   0  0  0  0  0  0  0  0  0  0  0  0
    0.3714   -9.1375    2.7087 H   0  0  0  0  0  0  0  0  0  0  0  0
    0.5914   -7.8984    1.4503 H   0  0  0  0  0  0  0  0  0  0  0  0
   -0.7627   -6.2625    2.8112 H   0  0  0  0  0  0  0  0  0  0  0  0
   -0.9467   -7.4810    4.1020 H   0  0  0  0  0  0  0  0  0  0  0  0
   -1.6364   -8.2372    0.1828 H   0  0  0  0  0  0  0  0  0  0  0  0
  1  2  2  0  0  0  0
  1 50  1  0  0  0  0
  2  3  2  0  0  0  0
  2  4  1  0  0  0  0
  2 43  1  0  0  0  0
  4  5  2  0  0  0  0
  4 41  1  0  0  0  0
  5  6  1  0  0  0  0
  5  7  1  0  0  0  0
  7  8  1  0  0  0  0
  7  9  2  0  0  0  0
  9 10  1  0  0  0  0
  9 39  1  0  0  0  0
 10 11  1  0  0  0  0
 10 38  1  0  0  0  0
 11 12  1  0  0  0  0
 11 37  2  0  0  0  0
 12 13  2  0  0  0  0
 13 14  1  0  0  0  0
 13 15  1  0  0  0  0
 15 16  1  0  0  0  0
 15 17  2  0  0  0  0
 17 18  1  0  0  0  0
 17 37  1  0  0  0  0
 18 19  1  0  0  0  0
 18 36  1  0  0  0  0
 19 20  1  0  0  0  0
 19 24  1  0  0  0  0
 19 35  1  0  0  0  0
 20 21  1  0  0  0  0
 20 22  1  0  0  0  0
 20 23  1  0  0  0  0
 24 25  1  0  0  0  0
 24 27  1  0  0  0  0
 24 31  1  0  0  0  0
 25 26  1  0  0  0  0
 27 28  1  0  0  0  0
 27 29  1  0  0  0  0
 27 30  1  0  0  0  0
 31 32  1  0  0  0  0
 31 33  1  0  0  0  0
 31 34  1  0  0  0  0
 39 40  1  0  0  0  0
 39 41  2  0  0  0  0
 41 42  1  0  0  0  0
 43 44  1  0  0  0  0
 43 48  1  0  0  0  0
 43 49  1  0  0  0  0
 44 45  1  0  0  0  0
 44 46  1  0  0  0  0
 44 47  1  0  0  0  0
M  END
$$$$
