
  -OEChem-12102412493D

 17 16  0     0  0  0  0  0  0999 V2000
    1.4773   -2.3470   -0.0865 O   0  0  0  0  0  0  0  0  0  0  0  0
    1.3003   -1.1283   -0.6320 C   0  0  0  0  0  0  0  0  0  0  0  0
    2.1654   -0.5180   -1.2291 O   0  0  0  0  0  0  0  0  0  0  0  0
   -0.1034   -0.6103   -0.4205 C   0  0  0  0  0  0  0  0  0  0  0  0
   -1.0094   -0.4822   -2.0134 S   0  0  0  0  0  0  0  0  0  0  0  0
   -2.3235    0.0848   -1.6916 O   0  0  0  0  0  0  0  0  0  0  0  0
   -0.8768   -1.7682   -2.7016 O   0  0  0  0  0  0  0  0  0  0  0  0
   -0.0482    0.7929   -2.9271 C   0  0  0  0  0  0  0  0  0  0  0  0
   -0.9260    1.3758   -4.0171 C   0  0  0  0  0  0  0  0  0  0  0  0
   -1.1590    0.8365   -5.0751 O   0  0  0  0  0  0  0  0  0  0  0  0
   -1.4143    2.5851   -3.6557 O   0  0  0  0  0  0  0  0  0  0  0  0
   -1.9997    2.8799   -4.3806 H   0  0  0  0  0  0  0  0  0  0  0  0
    0.8174    0.2915   -3.3562 H   0  0  0  0  0  0  0  0  0  0  0  0
    0.2539    1.5530   -2.2073 H   0  0  0  0  0  0  0  0  0  0  0  0
   -0.7139   -1.2850    0.1814 H   0  0  0  0  0  0  0  0  0  0  0  0
   -0.0843    0.3865    0.0229 H   0  0  0  0  0  0  0  0  0  0  0  0
    2.3915   -2.6250   -0.2937 H   0  0  0  0  0  0  0  0  0  0  0  0
  1  2  1  0  0  0  0
  1 17  1  0  0  0  0
  2  3  2  0  0  0  0
  2  4  1  0  0  0  0
  4  5  1  0  0  0  0
  4 15  1  0  0  0  0
  4 16  1  0  0  0  0
  5  6  2  0  0  0  0
  5  7  2  0  0  0  0
  5  8  1  0  0  0  0
  8  9  1  0  0  0  0
  8 13  1  0  0  0  0
  8 14  1  0  0  0  0
  9 10  2  0  0  0  0
  9 11  1  0  0  0  0
 11 12  1  0  0  0  0
M  END
$$$$
