
  -OEChem-12122420533D

 50 51  0     1  0  0  0  0  0999 V2000
   -1.4351   -7.7336    3.1427 N   0  0  0  0  0  0  0  0  0  0  0  0
   -2.2713   -7.1275    1.9838 S   0  0  2  0  0  0  0  0  0  0  0  0
   -1.6825   -6.3340    0.8714 O   0  0  0  0  0  0  0  0  0  0  0  0
   -3.4948   -6.1459    2.8387 C   0  0  0  0  0  0  0  0  0  0  0  0
   -3.8610   -6.4333    4.1544 C   0  0  0  0  0  0  0  0  0  0  0  0
   -3.3445   -7.2242    4.6876 H   0  0  0  0  0  0  0  0  0  0  0  0
   -4.8522   -5.6793    4.7763 C   0  0  0  0  0  0  0  0  0  0  0  0
   -5.1209   -5.8779    5.8035 H   0  0  0  0  0  0  0  0  0  0  0  0
   -5.4930   -4.6382    4.0769 C   0  0  0  0  0  0  0  0  0  0  0  0
   -6.4953   -3.8400    4.6434 N   0  0  0  0  0  0  0  0  0  0  0  0
   -7.4371   -4.1567    5.6031 C   0  0  0  0  0  0  0  0  0  0  0  0
   -8.3461   -3.1884    5.8206 N   0  0  0  0  0  0  0  0  0  0  0  0
   -9.2892   -3.4865    6.7265 C   0  0  0  0  0  0  0  0  0  0  0  0
  -10.0389   -2.7224    6.9211 H   0  0  0  0  0  0  0  0  0  0  0  0
   -9.3361   -4.6975    7.3960 C   0  0  0  0  0  0  0  0  0  0  0  0
  -10.7084   -5.0637    8.6803 Br  0  0  0  0  0  0  0  0  0  0  0  0
   -8.3353   -5.6590    7.0993 C   0  0  0  0  0  0  0  0  0  0  0  0
   -8.2884   -6.8708    7.6966 N   0  0  0  0  0  0  0  0  0  0  0  0
   -7.2226   -7.8563    7.5026 C   0  0  1  0  0  0  0  0  0  0  0  0
   -7.0090   -8.5953    8.8273 C   0  0  0  0  0  0  0  0  0  0  0  0
   -6.2119   -9.3363    8.7419 H   0  0  0  0  0  0  0  0  0  0  0  0
   -6.7294   -7.8847    9.6104 H   0  0  0  0  0  0  0  0  0  0  0  0
   -7.9179   -9.1152    9.1474 H   0  0  0  0  0  0  0  0  0  0  0  0
   -7.4845   -8.7886    6.2787 C   0  0  0  0  0  0  0  0  0  0  0  0
   -7.8273   -7.9992    5.1308 O   0  0  0  0  0  0  0  0  0  0  0  0
   -7.3350   -7.1575    5.1665 H   0  0  0  0  0  0  0  0  0  0  0  0
   -8.6818   -9.7142    6.5018 C   0  0  0  0  0  0  0  0  0  0  0  0
   -8.9024  -10.2410    5.5693 H   0  0  0  0  0  0  0  0  0  0  0  0
   -9.5701   -9.1357    6.7737 H   0  0  0  0  0  0  0  0  0  0  0  0
   -8.4851  -10.4588    7.2782 H   0  0  0  0  0  0  0  0  0  0  0  0
   -6.2154   -9.5949    5.9576 C   0  0  0  0  0  0  0  0  0  0  0  0
   -6.3782  -10.1533    5.0318 H   0  0  0  0  0  0  0  0  0  0  0  0
   -5.3620   -8.9260    5.7985 H   0  0  0  0  0  0  0  0  0  0  0  0
   -5.9546  -10.3081    6.7455 H   0  0  0  0  0  0  0  0  0  0  0  0
   -6.3164   -7.2862    7.2777 H   0  0  0  0  0  0  0  0  0  0  0  0
   -9.0322   -7.0863    8.3479 H   0  0  0  0  0  0  0  0  0  0  0  0
   -7.3842   -5.3562    6.1926 N   0  0  0  0  0  0  0  0  0  0  0  0
   -6.7195   -2.9770    4.1623 H   0  0  0  0  0  0  0  0  0  0  0  0
   -5.0866   -4.3435    2.7611 C   0  0  0  0  0  0  0  0  0  0  0  0
   -5.5625   -3.5285    2.2206 H   0  0  0  0  0  0  0  0  0  0  0  0
   -4.0887   -5.0909    2.1429 C   0  0  0  0  0  0  0  0  0  0  0  0
   -3.7628   -4.8570    1.1338 H   0  0  0  0  0  0  0  0  0  0  0  0
   -3.3220   -8.3912    1.1528 C   0  0  0  0  0  0  0  0  0  0  0  0
   -2.4474   -9.4079    0.4264 C   0  0  0  0  0  0  0  0  0  0  0  0
   -3.0798  -10.1411   -0.0833 H   0  0  0  0  0  0  0  0  0  0  0  0
   -1.8171   -8.9186   -0.3207 H   0  0  0  0  0  0  0  0  0  0  0  0
   -1.8078   -9.9522    1.1283 H   0  0  0  0  0  0  0  0  0  0  0  0
   -3.9269   -8.8486    1.9401 H   0  0  0  0  0  0  0  0  0  0  0  0
   -3.9733   -7.8443    0.4662 H   0  0  0  0  0  0  0  0  0  0  0  0
   -0.6651   -8.2940    2.7720 H   0  0  0  0  0  0  0  0  0  0  0  0
  1  2  2  0  0  0  0
  1 50  1  0  0  0  0
  2  3  2  0  0  0  0
  2  4  1  0  0  0  0
  2 43  1  0  0  0  0
  4  5  2  0  0  0  0
  4 41  1  0  0  0  0
  5  6  1  0  0  0  0
  5  7  1  0  0  0  0
  7  8  1  0  0  0  0
  7  9  2  0  0  0  0
  9 10  1  0  0  0  0
  9 39  1  0  0  0  0
 10 11  1  0  0  0  0
 10 38  1  0  0  0  0
 11 12  1  0  0  0  0
 11 37  2  0  0  0  0
 12 13  2  0  0  0  0
 13 14  1  0  0  0  0
 13 15  1  0  0  0  0
 15 16  1  0  0  0  0
 15 17  2  0  0  0  0
 17 18  1  0  0  0  0
 17 37  1  0  0  0  0
 18 19  1  0  0  0  0
 18 36  1  0  0  0  0
 19 20  1  0  0  0  0
 19 24  1  0  0  0  0
 19 35  1  0  0  0  0
 20 21  1  0  0  0  0
 20 22  1  0  0  0  0
 20 23  1  0  0  0  0
 24 25  1  0  0  0  0
 24 27  1  0  0  0  0
 24 31  1  0  0  0  0
 25 26  1  0  0  0  0
 27 28  1  0  0  0  0
 27 29  1  0  0  0  0
 27 30  1  0  0  0  0
 31 32  1  0  0  0  0
 31 33  1  0  0  0  0
 31 34  1  0  0  0  0
 39 40  1  0  0  0  0
 39 41  2  0  0  0  0
 41 42  1  0  0  0  0
 43 44  1  0  0  0  0
 43 48  1  0  0  0  0
 43 49  1  0  0  0  0
 44 45  1  0  0  0  0
 44 46  1  0  0  0  0
 44 47  1  0  0  0  0
M  END
$$$$
