21
0 1 C4H10NO5P
O                     1.504991761338     1.824997042449    -2.563098871709
C                     1.210822134052     0.508880793383    -2.396834583055
O                     2.053438875467    -0.364861400132    -2.454942082613
C                    -0.274457733855     0.280579853798    -2.113579918377
N                    -0.689979882500    -1.104356029102    -2.305530579964
H                    -0.604122250637    -1.356695473202    -3.288681675232
H                    -0.038897334915    -1.712773812245    -1.808577398575
C                    -0.580448693185     0.741397624304    -0.671961287349
C                    -2.081953144955     0.658770545228    -0.372479578134
P                    -2.449102580343     0.997531163170     1.359195787896
O                    -1.787283540456     0.164209223665     2.398164754642
O                    -4.077766754764     0.930859374966     1.440700746697
H                    -4.351675419637     0.302271288048     2.130793232815
O                    -2.121354198365     2.588337968188     1.443307674724
H                    -1.987224444542     2.880409534837     2.361821784582
H                    -2.648966229848     1.369731859622    -0.983085149204
H                    -2.456425144080    -0.343706440447    -0.596005143194
H                    -0.223545605000     1.765133177270    -0.534716039741
H                    -0.027569529414     0.104110684268     0.027761567824
H                    -0.839825246960     0.916773132710    -2.803753400359
H                     2.469900673501     1.880637126260    -2.706113071682
