
  -OEChem-12102412493D

 50 51  0     1  0  0  0  0  0999 V2000
   -7.6470    0.3089   -0.3579 N   0  0  0  0  0  0  0  0  0  0  0  0
   -6.6157   -0.8236   -0.6099 S   0  0  2  0  0  0  0  0  0  0  0  0
   -6.6019   -1.6650   -1.8381 O   0  0  0  0  0  0  0  0  0  0  0  0
   -6.7912   -1.8659    0.8277 C   0  0  0  0  0  0  0  0  0  0  0  0
   -7.2917   -1.3693    2.0323 C   0  0  0  0  0  0  0  0  0  0  0  0
   -7.6232   -0.3376    2.0835 H   0  0  0  0  0  0  0  0  0  0  0  0
   -7.3886   -2.2010    3.1463 C   0  0  0  0  0  0  0  0  0  0  0  0
   -7.7792   -1.8291    4.0825 H   0  0  0  0  0  0  0  0  0  0  0  0
   -6.9834   -3.5474    3.0525 C   0  0  0  0  0  0  0  0  0  0  0  0
   -7.0423   -4.4616    4.1074 N   0  0  0  0  0  0  0  0  0  0  0  0
   -7.4697   -4.3417    5.4162 C   0  0  0  0  0  0  0  0  0  0  0  0
   -7.9144   -3.1650    5.8728 N   0  0  0  0  0  0  0  0  0  0  0  0
   -8.3061   -3.1645    7.1617 C   0  0  0  0  0  0  0  0  0  0  0  0
   -8.6721   -2.2196    7.5577 H   0  0  0  0  0  0  0  0  0  0  0  0
   -8.2585   -4.2855    7.9624 C   0  0  0  0  0  0  0  0  0  0  0  0
   -8.8366   -4.2213    9.7871 Br  0  0  0  0  0  0  0  0  0  0  0  0
   -7.7679   -5.4958    7.3876 C   0  0  0  0  0  0  0  0  0  0  0  0
   -7.7065   -6.6479    8.0896 N   0  0  0  0  0  0  0  0  0  0  0  0
   -7.1208   -7.8864    7.5804 C   0  0  1  0  0  0  0  0  0  0  0  0
   -5.6009   -7.8873    7.7946 C   0  0  0  0  0  0  0  0  0  0  0  0
   -5.1248   -8.7330    7.2905 H   0  0  0  0  0  0  0  0  0  0  0  0
   -5.1807   -6.9690    7.3763 H   0  0  0  0  0  0  0  0  0  0  0  0
   -5.3595   -7.9320    8.8601 H   0  0  0  0  0  0  0  0  0  0  0  0
   -7.8642   -9.0685    8.2469 C   0  0  0  0  0  0  0  0  0  0  0  0
   -7.7451   -8.8214    9.6684 O   0  0  0  0  0  0  0  0  0  0  0  0
   -8.3026   -9.4619   10.1374 H   0  0  0  0  0  0  0  0  0  0  0  0
   -7.2149  -10.4120    7.8966 C   0  0  0  0  0  0  0  0  0  0  0  0
   -7.8133  -11.2361    8.3013 H   0  0  0  0  0  0  0  0  0  0  0  0
   -6.2113  -10.4836    8.3204 H   0  0  0  0  0  0  0  0  0  0  0  0
   -7.1501  -10.5512    6.8121 H   0  0  0  0  0  0  0  0  0  0  0  0
   -9.3440   -9.0678    7.8402 C   0  0  0  0  0  0  0  0  0  0  0  0
   -9.8833   -9.8670    8.3625 H   0  0  0  0  0  0  0  0  0  0  0  0
   -9.8173   -8.1138    8.0831 H   0  0  0  0  0  0  0  0  0  0  0  0
   -9.4533   -9.2445    6.7653 H   0  0  0  0  0  0  0  0  0  0  0  0
   -7.3267   -7.9203    6.5084 H   0  0  0  0  0  0  0  0  0  0  0  0
   -7.9042   -6.6207    9.0837 H   0  0  0  0  0  0  0  0  0  0  0  0
   -7.3716   -5.4952    6.1054 N   0  0  0  0  0  0  0  0  0  0  0  0
   -6.7310   -5.4022    3.8985 H   0  0  0  0  0  0  0  0  0  0  0  0
   -6.4901   -4.0336    1.8228 C   0  0  0  0  0  0  0  0  0  0  0  0
   -6.1911   -5.0762    1.7369 H   0  0  0  0  0  0  0  0  0  0  0  0
   -6.3948   -3.2010    0.7144 C   0  0  0  0  0  0  0  0  0  0  0  0
   -6.0415   -3.5823   -0.2390 H   0  0  0  0  0  0  0  0  0  0  0  0
   -4.8804   -0.2289   -0.4399 C   0  0  0  0  0  0  0  0  0  0  0  0
   -4.5486    0.7557   -1.5566 C   0  0  0  0  0  0  0  0  0  0  0  0
   -3.5099    1.0869   -1.4619 H   0  0  0  0  0  0  0  0  0  0  0  0
   -4.6738    0.2898   -2.5375 H   0  0  0  0  0  0  0  0  0  0  0  0
   -5.1861    1.6440   -1.5027 H   0  0  0  0  0  0  0  0  0  0  0  0
   -4.8109    0.2266    0.5513 H   0  0  0  0  0  0  0  0  0  0  0  0
   -4.2469   -1.1190   -0.4764 H   0  0  0  0  0  0  0  0  0  0  0  0
   -7.6630    0.9575   -1.1476 H   0  0  0  0  0  0  0  0  0  0  0  0
  1  2  2  0  0  0  0
  1 50  1  0  0  0  0
  2  3  2  0  0  0  0
  2  4  1  0  0  0  0
  2 43  1  0  0  0  0
  4  5  2  0  0  0  0
  4 41  1  0  0  0  0
  5  6  1  0  0  0  0
  5  7  1  0  0  0  0
  7  8  1  0  0  0  0
  7  9  2  0  0  0  0
  9 10  1  0  0  0  0
  9 39  1  0  0  0  0
 10 11  1  0  0  0  0
 10 38  1  0  0  0  0
 11 12  1  0  0  0  0
 11 37  2  0  0  0  0
 12 13  2  0  0  0  0
 13 14  1  0  0  0  0
 13 15  1  0  0  0  0
 15 16  1  0  0  0  0
 15 17  2  0  0  0  0
 17 18  1  0  0  0  0
 17 37  1  0  0  0  0
 18 19  1  0  0  0  0
 18 36  1  0  0  0  0
 19 20  1  0  0  0  0
 19 24  1  0  0  0  0
 19 35  1  0  0  0  0
 20 21  1  0  0  0  0
 20 22  1  0  0  0  0
 20 23  1  0  0  0  0
 24 25  1  0  0  0  0
 24 27  1  0  0  0  0
 24 31  1  0  0  0  0
 25 26  1  0  0  0  0
 27 28  1  0  0  0  0
 27 29  1  0  0  0  0
 27 30  1  0  0  0  0
 31 32  1  0  0  0  0
 31 33  1  0  0  0  0
 31 34  1  0  0  0  0
 39 40  1  0  0  0  0
 39 41  2  0  0  0  0
 41 42  1  0  0  0  0
 43 44  1  0  0  0  0
 43 48  1  0  0  0  0
 43 49  1  0  0  0  0
 44 45  1  0  0  0  0
 44 46  1  0  0  0  0
 44 47  1  0  0  0  0
M  END
$$$$
