
  -OEChem-12102412493D

 17 16  0     0  0  0  0  0  0999 V2000
   -1.8894   -1.7846    0.8369 O   0  0  0  0  0  0  0  0  0  0  0  0
   -0.6585   -1.9625    0.3133 C   0  0  0  0  0  0  0  0  0  0  0  0
   -0.0043   -2.9750    0.4248 O   0  0  0  0  0  0  0  0  0  0  0  0
   -0.1835   -0.7239   -0.4213 C   0  0  0  0  0  0  0  0  0  0  0  0
   -1.2676   -0.3584   -1.8668 S   0  0  0  0  0  0  0  0  0  0  0  0
   -2.3432    0.5414   -1.4439 O   0  0  0  0  0  0  0  0  0  0  0  0
   -1.5459   -1.6255   -2.5459 O   0  0  0  0  0  0  0  0  0  0  0  0
   -0.0915    0.6183   -2.8986 C   0  0  0  0  0  0  0  0  0  0  0  0
   -0.8609    1.3588   -3.9745 C   0  0  0  0  0  0  0  0  0  0  0  0
   -1.2145    0.8723   -5.0244 O   0  0  0  0  0  0  0  0  0  0  0  0
   -1.1013    2.6377   -3.6055 O   0  0  0  0  0  0  0  0  0  0  0  0
   -1.6431    3.0395   -4.3126 H   0  0  0  0  0  0  0  0  0  0  0  0
    0.5953   -0.0953   -3.3538 H   0  0  0  0  0  0  0  0  0  0  0  0
    0.4200    1.3155   -2.2333 H   0  0  0  0  0  0  0  0  0  0  0  0
   -0.2143    0.1574    0.2228 H   0  0  0  0  0  0  0  0  0  0  0  0
    0.8233   -0.9116   -0.7942 H   0  0  0  0  0  0  0  0  0  0  0  0
   -2.1508   -2.6300    1.2514 H   0  0  0  0  0  0  0  0  0  0  0  0
  1  2  1  0  0  0  0
  1 17  1  0  0  0  0
  2  3  2  0  0  0  0
  2  4  1  0  0  0  0
  4  5  1  0  0  0  0
  4 15  1  0  0  0  0
  4 16  1  0  0  0  0
  5  6  2  0  0  0  0
  5  7  2  0  0  0  0
  5  8  1  0  0  0  0
  8  9  1  0  0  0  0
  8 13  1  0  0  0  0
  8 14  1  0  0  0  0
  9 10  2  0  0  0  0
  9 11  1  0  0  0  0
 11 12  1  0  0  0  0
M  END
$$$$
