17
0 1 C4H6O6S
O                     1.477269654259    -2.346962869514    -0.086531057489
C                     1.300338539483    -1.128299551600    -0.632012546109
O                     2.165442624131    -0.517968909258    -1.229130421974
C                    -0.103429786659    -0.610317068946    -0.420527985137
S                    -1.009406942256    -0.482221078348    -2.013367735538
O                    -2.323528812376     0.084807992990    -1.691636987463
O                    -0.876751677230    -1.768242955942    -2.701559390657
C                    -0.048175054985     0.792916592417    -2.927062893127
C                    -0.925987917734     1.375783847710    -4.017123707892
O                    -1.159043668018     0.836466633289    -5.075088686556
O                    -1.414300741253     2.585052899566    -3.655652867860
H                    -1.999698834181     2.879932709128    -4.380572300123
H                     0.817443945548     0.291495514921    -3.356152748570
H                     0.253892907304     1.553011719774    -2.207286311920
H                    -0.713923944758    -1.285005809724     0.181407064961
H                    -0.084303935821     0.386476833950     0.022857412732
H                     2.391544684236    -2.624983468860    -0.293669025645
