29   
torsion grid (-165,)
C       -0.4303831330   -0.7934727263    2.6989253435
C       -1.3824359869   -1.2999285812    3.5526026669
C       -0.8327960541   -0.3586115264    1.4118657382
C       -2.7062071500   -1.3437010935    3.0681569009
C       -0.3591333004    0.9631134990   -0.7756920439
C        0.2746004319   -0.3901933250   -0.9733831512
C        0.1609164027    0.2036771387    0.4334380783
C       -0.6427008994   -1.6041270693   -2.9822323968
C       -5.0014448109   -1.8756377519    3.3892356763
C       -0.5287180809   -1.5821231559   -1.4516897154
N       -2.1127982293   -0.4259300856    1.0349464796
N       -3.0485685809   -0.9230363952    1.8572110605
N        1.4237738818    0.6940518168    0.9515608090
O       -3.6549593087   -1.8380768275    3.8965231544
H        0.6076414963   -0.7307136108    3.0088577524
H       -1.1542636902   -1.6532318198    4.5535782344
H        0.2071362273    1.8452141369   -1.0560187341
H       -1.4375704948    1.0247383601   -0.8752413265
H        1.3008128363   -0.3617999673   -1.3355384397
H       -1.1443916406   -0.7011753675   -3.3468065915
H       -1.2185381680   -2.4714862641   -3.3228543111
H        0.3446577954   -1.6502936322   -3.4565003600
H       -5.5964808615   -2.3008961211    4.1980945422
H       -5.0616398405   -2.5020594510    2.4954357134
H       -5.3503129095   -0.8699860888    3.1407689520
H       -0.0483782220   -2.5070508992   -1.1048601926
H       -1.5280001966   -1.5590463621   -1.0103142012
H        1.9912630306   -0.0597602153    1.3341371309
H        1.2767968324    1.3859366211    1.6849641377
29   
torsion grid (-150,)
C       -0.8849692652    0.0716434663    2.7059523406
C       -1.5416063376   -0.6597808454    3.6689208556
C       -1.0506088021   -0.2896555553    1.3460364001
C       -2.3438189282   -1.7265722622    3.2165822501
C       -1.0936585906    0.5469529296   -1.1103443735
C        0.2143068325   -0.1922109851   -0.9816932919
C       -0.3958145841    0.4948986934    0.2421249217
C        0.4746707993   -2.0585693711   -2.6505931652
C       -3.8104382832   -3.5419957013    3.6728109114
C        0.3197709722   -1.6920129845   -1.1679757565
N       -1.8522339583   -1.3027060577    1.0018791376
N       -2.4892667878   -2.0270329494    1.9319423711
N        0.2870843679    1.7244505156    0.5967172625
O       -2.9920093903   -2.4592148457    4.1515678583
H       -0.2515786726    0.9055918462    2.9889340293
H       -1.4656261687   -0.4443211527    4.7303667148
H       -1.0999060779    1.5128656649   -1.6051712259
H       -1.9923586074   -0.0541716012   -1.2035719887
H        1.0762808608    0.3638602446   -1.3456196572
H       -0.3914386484   -1.7166688060   -3.2278239902
H        0.5604894361   -3.1427350570   -2.7816938981
H        1.3681453605   -1.5967139368   -3.0871641684
H       -4.2329775811   -3.9951730950    4.5701846090
H       -3.2084331592   -4.2684754182    3.1207615025
H       -4.6030462916   -3.1692531113    3.0188428025
H        1.1855326393   -2.0652526147   -0.6044659145
H       -0.5628078620   -2.1832547988   -0.7541824032
H        1.0903240915    1.5461895044    1.1968885017
H       -0.3365742642    2.3687209547    1.0805098439
29   
torsion grid (-135,)
C       -1.0269149612    0.1724369292    2.7277985592
C       -1.7300416803   -0.5241648867    3.6836203190
C       -1.0001141940   -0.3277341684    1.4018134826
C       -2.3837462113   -1.6979693079    3.2586298299
C       -1.0540136658    0.5596316134   -1.0331570086
C        0.2264281710   -0.2360842686   -0.9681225687
C       -0.3161827432    0.4305361022    0.2958215758
C        0.4295318350   -2.0040200697   -2.7432811996
C       -3.7388372727   -3.5925145298    3.7363957708
C        0.2824349217   -1.7260589498   -1.2406710948
N       -1.6758724869   -1.4343689462    1.0783742435
N       -2.3561720833   -2.1258961802    2.0026434628
N        0.4274168407    1.6236695096    0.6571878876
O       -3.0716389610   -2.4001246270    4.1884728516
H       -0.4992484772    1.0822037137    2.9929926757
H       -1.7970702610   -0.2044882933    4.7191021301
H       -1.0414327369    1.5404083174   -1.4984394686
H       -1.9784335260   -0.0038340635   -1.1155343267
H        1.0951129918    0.3085313911   -1.3328928236
H       -0.4238610874   -1.6000070543   -3.2993114022
H        0.4810445589   -3.0802103247   -2.9412754777
H        1.3382479488   -1.5450092063   -3.1506964329
H       -4.2221746083   -4.0001058892    4.6248970769
H       -3.0204665669   -4.3070118119    3.3260829165
H       -4.4798070258   -3.3549097922    2.9686912441
H        1.1363908357   -2.1580418807   -0.7018190217
H       -0.6115178623   -2.2140043605   -0.8514679768
H        1.1975662455    1.4039761770    1.2867024212
H       -0.1696059793    2.3127049963    1.1114023152
29   
torsion grid (-120,)
C       -1.2129222908    0.2646107621    2.6863364293
C       -1.9580947534   -0.4066671831    3.6268402287
C       -0.9790200526   -0.3542796288    1.4313736497
C       -2.4411626478   -1.6797315434    3.2601829174
C       -0.9655025224    0.6085363085   -0.9777377240
C        0.2527412114   -0.2830720616   -0.9496675664
C       -0.2349548986    0.3716112514    0.3413448338
C        0.3994747070   -1.9380077739   -2.8314115365
C       -3.6526269019   -3.6559704128    3.7895084831
C        0.2019541695   -1.7529032418   -1.3202283799
N       -1.4975320461   -1.5526622624    1.1572838262
N       -2.2213268078   -2.2197246021    2.0688921898
N        0.5947234815    1.4971561557    0.7388000260
O       -3.1645564466   -2.3592710721    4.1795516859
H       -0.8104682684    1.2472682519    2.9079388428
H       -2.1813458873    0.0018478604    4.6077524709
H       -0.8881630190    1.6025210058   -1.4084990440
H       -1.9288402020    0.1169897887   -1.0796132061
H        1.1573713362    0.2174858963   -1.2885657018
H       -0.3909035550   -1.4281263009   -3.3940226874
H        0.3752868369   -2.9988000516   -3.1039333603
H        1.3604650941   -1.5289897263   -3.1657702468
H       -4.1957680305   -4.0269395395    4.6592915266
H       -2.8235508842   -4.3228550971    3.5389980711
H       -4.3166172514   -3.5763118591    2.9248741116
H        0.9905197190   -2.2898765454   -0.7771057726
H       -0.7415878109   -2.1935356748   -1.0005888712
H        1.2858363592    1.2180099010    1.4330779549
H        0.0372469159    2.2536648007    1.1307024400
29   
torsion grid (-105,)
C       -1.4460312552    0.3577048871    2.5717859094
C       -2.1994802399   -0.2971078468    3.5149829880
C       -0.9936267142   -0.3640784032    1.4358115203
C       -2.4633029566   -1.6629719402    3.2726505759
C       -0.8616864205    0.6815408663   -0.9468110361
C        0.2615084237   -0.3276288727   -0.9253445604
C       -0.1829254491    0.3333382503    0.3745830895
C        0.2897041126   -1.9022175929   -2.8774688243
C       -3.4648305195   -3.7149794664    3.9348415006
C        0.0540514356   -1.7647116408   -1.3667657479
N       -1.2901379243   -1.6531978361    1.2824796770
N       -2.0281140849   -2.3049923284    2.1982243754
N        0.7459525969    1.3575888361    0.8285462584
O       -3.1981077000   -2.3244992344    4.1955378013
H       -1.2091764358    1.4101234646    2.6927627044
H       -2.5862552972    0.1854998063    4.4073929716
H       -0.6822439840    1.6763915833   -1.3445474595
H       -1.8661281516    0.2915229000   -1.0884390670
H        1.2176111607    0.0868774834   -1.2380679240
H       -0.4054532929   -1.2702942869   -3.4423317301
H        0.1456897782   -2.9375498585   -3.2053914962
H        1.3077265895   -1.6031302370   -3.1544813411
H       -4.0605659942   -4.0523982551    4.7835674875
H       -2.5329234261   -4.2820834800    3.8670192759
H       -4.0205525399   -3.8341827980    3.0011726123
H        0.7423712948   -2.4201809936   -0.8202958089
H       -0.9484712714   -2.1042488793   -1.1061016265
H        1.3760887814    0.9837705611    1.5364940571
H        0.2586676893    2.1551499431    1.2320776909
29   
torsion grid (-90,)
C       -1.7011566164    0.4379418262    2.3224068095
C       -2.4721857888   -0.1965448459    3.2639374614
C       -1.0080245149   -0.3467555015    1.3634335560
C       -2.5011589766   -1.6083982437    3.2001809687
C       -0.6659357108    0.7974077250   -0.9638751120
C        0.3330448480   -0.3354271721   -0.9238264039
C       -0.1002537392    0.3307727675    0.3707692511
C        0.1425060047   -1.8373015829   -2.9278939831
C       -3.2839412279   -3.6882362101    4.0450737810
C       -0.0512781925   -1.7205304344   -1.4097471879
N       -1.0718537536   -1.6758409479    1.3842383327
N       -1.8305264477   -2.3101851708    2.2983169113
N        0.9086232167    1.2186426329    0.9319294299
O       -3.2565903862   -2.2505520745    4.1194638094
H       -1.6369522227    1.5225405589    2.2958229150
H       -3.0391767279    0.3293686963    4.0260413564
H       -0.3517389855    1.7758794496   -1.3157042005
H       -1.6983102833    0.5324547123   -1.1784536293
H        1.3440481067   -0.0379719522   -1.1945173169
H       -0.4754063556   -1.1058802187   -3.4615869965
H       -0.1326685580   -2.8358681346   -3.2847480538
H        1.1861485116   -1.6577371076   -3.2122753614
H       -3.9415946538   -4.0005318927    4.8568651618
H       -2.2811936523   -4.1019270459    4.1787582270
H       -3.6774074240   -4.0182310500    3.0802191990
H        0.5509595261   -2.4745694305   -0.8922819545
H       -1.0886780805   -1.9402066957   -1.1478997680
H        1.4791463290    0.7119887281    1.6081116520
H        0.4787598098    2.0013051578    1.4228101337
29   
torsion grid (-75,)
C       -1.8975253098    0.4196606903    2.1080040425
C       -2.6905676985   -0.2100583809    3.0356330609
C       -0.9912539259   -0.3598625701    1.3457688270
C       -2.5205544539   -1.6081468528    3.1551859247
C       -0.5217239510    0.8849465635   -0.9050077033
C        0.3814357015   -0.3295547021   -0.8946011795
C       -0.0239763685    0.3166047620    0.4128800940
C        0.0000580825   -1.7674066874   -2.9263835896
C       -3.1196839654   -3.6711909729    4.1749771076
C       -0.1324786257   -1.6633895299   -1.4010679990
N       -0.8719101665   -1.6728262889    1.5354587166
N       -1.6485898932   -2.3024943156    2.4362932702
N        1.0317727498    1.0875051486    1.0546425453
O       -3.2964570044   -2.2467460891    4.0595731784
H       -1.9682566863    1.4915879573    1.9399245966
H       -3.4159218978    0.3083939849    3.6552507530
H       -0.1155485534    1.8446825625   -1.2102570210
H       -1.5664389148    0.7184533686   -1.1572750472
H        1.4171868321   -0.1187117472   -1.1526756929
H       -0.5674040677   -0.9742944949   -3.4266791021
H       -0.3724025830   -2.7311188604   -3.2906350656
H        1.0459915721   -1.6739480916   -3.2413395889
H       -3.8305072601   -3.9826030883    4.9409979935
H       -2.0968434253   -3.9112385830    4.4761036797
H       -3.3342809457   -4.1659563348    3.2243345163
H        0.4160905751   -2.4766969346   -0.9151259473
H       -1.1793968348   -1.7961203509   -1.1120331050
H        1.5697665558    0.4764384840    1.6692111142
H        0.6338521992    1.8230455594    1.6384999655
29   
torsion grid (-60,)
C       -2.0599680394    0.3444943590    1.8626282953
C       -2.8916641352   -0.2892714679    2.7554810150
C       -0.9786164809   -0.3831199350    1.3118726400
C       -2.5797161327   -1.6342325217    3.0525264560
C       -0.4121474429    0.9452406339   -0.8637682407
C        0.4028655264   -0.3320530059   -0.9013300699
C        0.0352148172    0.2876003369    0.4272086783
C       -0.1174113418   -1.7111772430   -2.9501937330
C       -3.0659284245   -3.6476821324    4.2217929339
C       -0.2172181803   -1.6132578474   -1.4224262897
N       -0.7368312698   -1.6483030368    1.6579382426
N       -1.5448260369   -2.2792817297    2.5261720457
N        1.1324537467    0.9488573062    1.1184774357
O       -3.3899068741   -2.2766919311    3.9234945760
H       -2.2254326356    1.3774167886    1.5671036196
H       -3.7474475363    0.1895894306    3.2215379418
H        0.0679594828    1.8824205231   -1.1279019707
H       -1.4628849197    0.8666536164   -1.1337341174
H        1.4513681608   -0.1945859377   -1.1568777515
H       -0.6272845121   -0.8696224646   -3.4328425561
H       -0.5707003602   -2.6380577508   -3.3182616615
H        0.9277883748   -1.6973315330   -3.2801801061
H       -3.8313730628   -3.9712172691    4.9278012981
H       -2.0714170794   -3.7220405425    4.6689782265
H       -3.0931729015   -4.2578781153    3.3154645736
H        0.2741643211   -2.4721728822   -0.9526985083
H       -1.2686392164   -1.6671614098   -1.1196686083
H        1.6257781643    0.2615813284    1.6888779429
H        0.7690876318    1.6573651119    1.7564577728
29   
torsion grid (-45,)
C       -2.1480119776    0.2378730993    1.6722719969
C       -3.0092857245   -0.4122386889    2.5266630798
C       -0.9316507758   -0.3959795445    1.3331897396
C       -2.5888894937   -1.6736590180    2.9991189496
C       -0.3047356453    0.9988159265   -0.7841037707
C        0.4293510628   -0.3243369248   -0.8773346351
C        0.1101848820    0.2688099103    0.4765898128
C       -0.2089531731   -1.6390531462   -2.9400740603
C       -2.9883334344   -3.6173175578    4.3109282577
C       -0.2778741814   -1.5538532657   -1.4101392288
N       -0.5961487039   -1.5862087796    1.8359960710
N       -1.4271523714   -2.2293536059    2.6694687046
N        1.2507254566    0.8290185226    1.1842925495
O       -3.4256932450   -2.3314470190    3.8328299512
H       -2.3882532824    1.2133584598    1.2586206959
H       -3.9646671083   -0.0020289395    2.8394548237
H        0.2330080715    1.9118051568   -1.0190960663
H       -1.3580076428    0.9968753120   -1.0550393435
H        1.4821846211   -0.2478298648   -1.1401764266
H       -0.6730721999   -0.7612051774   -3.4036833836
H       -0.7246896585   -2.5311980385   -3.3116772100
H        0.8297604555   -1.6854198280   -3.2866715441
H       -3.7958749189   -3.9686845106    4.9539451130
H       -2.0572668861   -3.5244961337    4.8757900735
H       -2.8299750320   -4.3068736120    3.4778471147
H        0.1663239058   -2.4492923920   -0.9599123473
H       -1.3267218023   -1.5456627667   -1.0912803200
H        1.6948243019    0.0844516610    1.7226934462
H        0.9316054888    1.5271509889    1.8566719507
29   
torsion grid (-30,)
C       -2.2086941994    0.1058609379    1.4890557014
C       -3.0878271904   -0.5592406308    2.3142417216
C       -0.8990869353   -0.4042524152    1.3516872878
C       -2.5932998206   -1.7099917802    2.9622306836
C       -0.2167934415    1.0411168763   -0.7230306457
C        0.4396794007   -0.3170493079   -0.8698767819
C        0.1635384546    0.2474054753    0.5088926154
C       -0.2902326231   -1.5405065115   -2.9600238347
C       -2.9305162573   -3.5539460944    4.4269006821
C       -0.3395179501   -1.4904040820   -1.4277776207
N       -0.5009601855   -1.4941733319    2.0129933171
N       -1.3463080056   -2.1493652901    2.8200402908
N        1.3425301936    0.7176418701    1.2173894884
O       -3.4457118972   -2.3815996040    3.7687746691
H       -2.5064799382    1.0049415284    0.9582418883
H       -4.1110112671   -0.2360491842    2.4799451354
H        0.3735054730    1.9284262479   -0.9272041790
H       -1.2664889154    1.1122954817   -0.9964298241
H        1.4940266016   -0.2940387037   -1.1365877055
H       -0.7090515512   -0.6264070833   -3.3956772235
H       -0.8583533343   -2.3927310106   -3.3484621383
H        0.7410049804   -1.6351386107   -3.3185949479
H       -3.7654730372   -3.9376302751    5.0140109599
H       -2.0889079367   -3.2962399730    5.0749027783
H       -2.6001185071   -4.2954121098    3.6949976714
H        0.0605810855   -2.4212196785   -1.0072860428
H       -1.3837348523   -1.4340539746   -1.0980090834
H        1.7365032516   -0.0690840584    1.7345593244
H        1.0674807760    1.4120527706    1.9127978298
29   
torsion grid (-15,)
C       -2.2417165084   -0.0740044751    1.3014945012
C       -3.1287168087   -0.7400910543    2.1167238299
C       -0.8767537996   -0.4357177896    1.3530313026
C       -2.5901666153   -1.7445940960    2.9467971403
C       -0.1417385602    1.0601155924   -0.6802875841
C        0.4427287368   -0.3211424090   -0.8860955025
C        0.2024999364    0.2043782562    0.5205422559
C       -0.3614987860   -1.4039312128   -3.0255151239
C       -2.8876059281   -3.4362265015    4.5923392850
C       -0.3917214354   -1.4308073402   -1.4919245669
N       -0.4435479190   -1.3915684954    2.1794414737
N       -1.2964436952   -2.0476634522    2.9774181331
N        1.4114450741    0.5935200056    1.2259507713
O       -3.4494095970   -2.4148572804    3.7473528559
H       -2.5804150435    0.7194819462    0.6435065347
H       -4.1915588544   -0.5202221778    2.1440328084
H        0.4950251615    1.9222435900   -0.8493068435
H       -1.1843086841    1.2022393724   -0.9508559132
H        1.4975635163   -0.3413199255   -1.1506968664
H       -0.7481466291   -0.4526802476   -3.4079781435
H       -0.9676193477   -2.2119008440   -3.4494283669
H        0.6611079953   -1.5201905306   -3.4017199933
H       -3.7355825471   -3.8451891072    5.1425607306
H       -2.1514316742   -3.0097647674    5.2785216387
H       -2.4053416422   -4.2128479975    3.9932220504
H       -0.0234007031   -2.3983066652   -1.1280052767
H       -1.4293243634   -1.3523051921   -1.1471432509
H        1.7413972147   -0.2155725820    1.7531082715
H        1.1794307974    1.3070181482    1.9178575047
29   
torsion grid (0,)
C       -2.2621686679   -0.2901421443    1.1447433635
C       -3.1593320282   -0.9470637764    1.9542399567
C       -0.8786857304   -0.4921212751    1.3647399623
C       -2.6156854031   -1.7847902487    2.9503081358
C       -0.1088917898    1.0656412449   -0.6135635026
C        0.4223718716   -0.3217371724   -0.8967027592
C        0.2129195256    0.1403603657    0.5423349641
C       -0.4123473131   -1.2421496424   -3.0970620207
C       -2.9183914580   -3.2946013652    4.7623138945
C       -0.4392944402   -1.3710803731   -1.5682244752
N       -0.4463430224   -1.2961448107    2.3395480342
N       -1.3105189624   -1.9439127512    3.1338331639
N        1.4457533419    0.4591357757    1.2396987264
O       -3.4855445052   -2.4433437152    3.7492676096
H       -2.6123760188    0.3803804957    0.3674735989
H       -4.2352759353   -0.8398316768    1.8568844153
H        0.5598541959    1.9105421431   -0.7411257916
H       -1.1468024555    1.2668946462   -0.8626206617
H        1.4765435021   -0.3621002965   -1.1612434899
H       -0.7826138353   -0.2606165537   -3.4133009784
H       -1.0342016256   -2.0089531761   -3.5715995467
H        0.6069797443   -1.3511225340   -3.4839812258
H       -3.7751763428   -3.7234330300    5.2829750565
H       -2.2976172967   -2.7161867019    5.4513651559
H       -2.3080719175   -4.0808551512    4.3105839486
H       -0.0877681733   -2.3680084864   -1.2732849425
H       -1.4744745462   -1.2992586428   -1.2175528718
H        1.7377044627   -0.3713713595    1.7553955395
H        1.2485022773    1.1659819808    1.9492138845
29   
torsion grid (15,)
C       -2.2556084897   -0.5560073051    1.0407666669
C       -3.1542909432   -1.1951000415    1.8603855417
C       -0.8793307974   -0.5942852381    1.3804564725
C       -2.6249973080   -1.8534376566    2.9908608112
C       -0.1112223127    1.0351914621   -0.5326788241
C        0.3926281117   -0.3374132906   -0.9163053193
C        0.2156703687    0.0284957113    0.5563323046
C       -0.4317262535   -1.0859572259   -3.1813750372
C       -2.9465194175   -3.1560179871    4.9537221283
C       -0.4655370683   -1.3348269081   -1.6671420472
N       -0.4630567089   -1.2346894715    2.4756524552
N       -1.3317181242   -1.8631572396    3.2834688102
N        1.4708943237    0.2884090149    1.2371132777
O       -3.4988306315   -2.4915973636    3.8022295064
H       -2.6049017981   -0.0144195445    0.1688760217
H       -4.2237653626   -1.2025301711    1.6741065326
H        0.5676566546    1.8775582841   -0.6155059904
H       -1.1528123476    1.2676951114   -0.7351715743
H        1.4453204221   -0.3673692558   -1.1878287815
H       -0.8079743250   -0.0853931572   -3.4215754155
H       -1.0451592346   -1.8177495486   -3.7180093604
H        0.5903737719   -1.1565465289   -3.5697786002
H       -3.8032944755   -3.5993477104    5.4621241647
H       -2.4374715468   -2.4416870889    5.6059060210
H       -2.2349922272   -3.9285509383    4.6509569008
H       -0.1073810259   -2.3493297744   -1.4505943450
H       -1.5026832846   -1.3016961336   -1.3207790364
H        1.7570243364   -0.5690399767    1.7100942289
H        1.2993710665    0.9561080764    1.9902221497
29   
torsion grid (30,)
C       -2.2766274139   -0.8676075695    1.0019312721
C       -3.1807248213   -1.4795712530    1.8346627190
C       -0.9275151500   -0.7499179651    1.4281473462
C       -2.6875907433   -1.9529439700    3.0698417270
C       -0.1601043802    0.9578266958   -0.3969272744
C        0.3297676112   -0.3825434758   -0.8972052500
C        0.1745068165   -0.1415663500    0.6020632541
C       -0.4028450790   -0.9429150641   -3.2415264361
C       -3.0550519542   -3.0292673395    5.1573533926
C       -0.5008650977   -1.3152323702   -1.7552420093
N       -0.5457418546   -1.2228093266    2.6170476799
N       -1.4233622031   -1.8178837691    3.4425876402
N        1.4480987770    0.0537741044    1.2704677671
O       -3.5685269744   -2.5608182408    3.8967504889
H       -2.6071714762   -0.4552631510    0.0561619161
H       -4.2300420552   -1.5982330406    1.5828935850
H        0.5212061458    1.8018950554   -0.4235747972
H       -1.2070975420    1.2053755305   -0.5504411229
H        1.3839870794   -0.3844061743   -1.1648739472
H       -0.7702119164    0.0746742653   -3.4139708955
H       -0.9921296031   -1.6270296473   -3.8615366295
H        0.6348388237   -0.9835809411   -3.5907897984
H       -3.9109894887   -3.4787801123    5.6617416252
H       -2.6529611644   -2.1993273553    5.7441208218
H       -2.2653708938   -3.7690879738    5.0030239074
H       -0.1486059468   -2.3441320053   -1.6081101755
H       -1.5519106720   -1.3121470660   -1.4575315513
H        1.7569296454   -0.8467175741    1.6374851042
H        1.2909764215    0.6228705444    2.1031920384
29   
torsion grid (45,)
C       -2.2367870111   -1.1119179561    0.9327381556
C       -3.1185860762   -1.7153269449    1.7952422395
C       -0.9302430533   -0.8075984928    1.3955083415
C       -2.6480752659   -1.9889842454    3.0976734902
C       -0.2180521636    1.0470612774   -0.3027949672
C        0.2221116354   -0.2396337883   -0.9605211127
C        0.1420701532   -0.1578278334    0.5615204427
C       -0.2143453936   -0.8858754230   -3.3539988559
C       -3.0168333473   -2.8512328849    5.2820450117
C       -0.6652346886   -1.0465249775   -1.8950702397
N       -0.5640782154   -1.1080033518    2.6441368063
N       -1.4214697860   -1.6908304798    3.4992645621
N        1.4538096046   -0.0475565791    1.1736659567
O       -3.5090627809   -2.5812337653    3.9565876836
H       -2.5484351501   -0.8656694103   -0.0738075683
H       -4.1335286887   -1.9784929209    1.5137064640
H        0.4692668681    1.8859110236   -0.2653745659
H       -1.2709090480    1.3080369466   -0.3781189616
H        1.2658716196   -0.2368151047   -1.2659885625
H       -0.2338352760    0.1673879965   -3.6545589491
H       -0.8669439389   -1.4444524656   -4.0333438643
H        0.8082332197   -1.2533040630   -3.4932907018
H       -3.8514547718   -3.3210411066    5.8034016660
H       -2.7214934286   -1.9250311792    5.7817678751
H       -2.1560259590   -3.5239419370    5.2459731973
H       -0.6441845906   -2.1084171024   -1.6187872836
H       -1.7085368710   -0.7244003627   -1.8246591424
H        1.7973428772   -0.9885395379    1.3695118495
H        1.3412478861    0.3742785533    2.0958561023
29   
torsion grid (60,)
C       -1.8965373306   -1.7273282342    1.0103705903
C       -2.7661916782   -2.2566456136    1.9339909272
C       -1.4103323679   -0.4107954851    1.2099311325
C       -3.1158887012   -1.4334474370    3.0245364529
C       -0.8985128363    0.5633267997   -1.1575507750
C        0.3054018635   -0.3025682042   -0.8728988706
C       -0.4663981190    0.3187914175    0.2867015505
C        1.2428855533   -1.9196094941   -2.5555072119
C       -4.3229888520   -1.0887409362    5.0435313170
C        0.3827343553   -1.7615408427   -1.2933983915
N       -1.7829268411    0.2954551312    2.2814140652
N       -2.6379282030   -0.2072414489    3.1851831022
N        0.2404464139    1.4490363362    0.8662256126
O       -3.9764526574   -1.9408298124    3.9363284833
H       -1.5946861192   -2.3149637839    0.1546336880
H       -3.1745899005   -3.2592956354    1.8525497448
H       -0.7562857715    1.5697146223   -1.5379075053
H       -1.7989110092    0.0552190017   -1.4947408850
H        1.2530343044    0.2180829246   -0.9915529799
H        0.8369821528   -1.3238329710   -3.3802299586
H        1.2822951212   -2.9651216687   -2.8791717800
H        2.2704397765   -1.5846330963   -2.3765692983
H       -5.0132982217   -1.6777560297    5.6482136067
H       -4.8036060473   -0.1722829598    4.6915040304
H       -3.4337719765   -0.8230037039    5.6209823803
H        0.8035260032   -2.3740140339   -0.4855195618
H       -0.6141129526   -2.1586870271   -1.5099129249
H        0.8783118455    1.0987283305    1.5822900160
H       -0.4375727621    2.0149056894    1.3771883799
29   
torsion grid (75,)
C       -1.5886307126   -1.8427455940    1.2050101760
C       -2.4859884609   -2.3650219319    2.1087852192
C       -1.3053692849   -0.4571203937    1.2548962355
C       -3.0648873107   -1.4639502645    3.0242836914
C       -0.8354285361    0.5882467441   -1.0917582411
C        0.3612032459   -0.3041214028   -0.8657807492
C       -0.3737943773    0.2898044975    0.3303725402
C        1.0197972208   -1.8212520138   -2.7572524887
C       -4.5359508546   -1.0282171182    4.8411830534
C        0.3767062172   -1.7388383148   -1.3653916652
N       -1.8862100299    0.3243882285    2.1717570904
N       -2.7641510809   -0.1708737609    3.0535182241
N        0.3553142814    1.3937301050    0.9358538557
O       -3.9571443992   -1.9614921611    3.9104111668
H       -1.0992768068   -2.4906803524    0.4915303746
H       -2.7451031144   -3.4188799879    2.1406770946
H       -0.6898801011    1.6052321500   -1.4418840511
H       -1.7498484129    0.1029811185   -1.4244857945
H        1.3166575186    0.1989786378   -0.9981054849
H        0.4759923188   -1.1960210268   -3.4735230595
H        1.0189689950   -2.8496513912   -3.1339456458
H        2.0583520169   -1.4733798796   -2.7328739878
H       -5.2159423112   -1.6232228576    5.4516432227
H       -5.0801112632   -0.2410912587    4.3129114393
H       -3.7618981118   -0.5688820703    5.4613298433
H        0.9305754506   -2.3841829360   -0.6707243994
H       -0.6414071088   -2.1356043225   -1.4330147288
H        0.9968473344    1.0183874292    1.6354832585
H       -0.3150347568    1.9608851842    1.4558129478
29   
torsion grid (90,)
C       -1.3106222631   -1.8680544043    1.4271610552
C       -2.2211510627   -2.3971240917    2.3153286516
C       -1.2200441535   -0.4624012912    1.3103800057
C       -3.0010595219   -1.4792558951    3.0455332204
C       -0.7577245990    0.6288203272   -1.0154352872
C        0.3983939896   -0.3254109111   -0.8280714965
C       -0.2875362006    0.2834187415    0.3876228944
C        0.7230782451   -1.8233447562   -2.8209692984
C       -4.6914214576   -1.0317684899    4.6580860503
C        0.2973091511   -1.7486207377   -1.3477853043
N       -1.9866595170    0.3400439257    2.0569084691
N       -2.8733340611   -0.1613848621    2.9246512328
N        0.4875315148    1.3442314084    1.0147289943
O       -3.9079211288   -1.9826033631    3.9131511406
H       -0.6614288514   -2.5181311874    0.8558831880
H       -2.3435786077   -3.4645736568    2.4713320037
H       -0.5668547447    1.6423060514   -1.3537612232
H       -1.7008268702    0.1967638406   -1.3407133113
H        1.3773644371    0.1225880126   -0.9847298430
H        0.0946332475   -1.1736641311   -3.4393994904
H        0.6403806161   -2.8451364936   -3.2065897386
H        1.7620275428   -1.4994392643   -2.9476700181
H       -5.3488812417   -1.6363661378    5.2836094606
H       -5.2744960289   -0.3979441202    3.9850705147
H       -4.0485774157   -0.3974579651    5.2737916728
H        0.9320170405   -2.4209032147   -0.7548014294
H       -0.7304557586   -2.1165210968   -1.2603198574
H        1.0939962585    0.9381147548    1.7279910922
H       -0.1636705901    1.9544623752    1.5100905908
29   
torsion grid (105,)
C       -1.0560715196   -1.8054470410    1.5798664161
C       -1.9667732173   -2.3606870233    2.4511154234
C       -1.1499063709   -0.4239107136    1.2976321796
C       -2.9289060239   -1.4879686868    2.9977946043
C       -0.6630680413    0.7229850676   -0.9912443955
C        0.4344134525   -0.3058220143   -0.8364912034
C       -0.2028863627    0.3225760453    0.3940836719
C        0.4606938956   -1.8068830904   -2.8594587330
C       -4.8085697983   -1.1143820380    4.4070514883
C        0.2086850443   -1.7171604063   -1.3478785136
N       -2.0878301509    0.3389038717    1.8669703689
N       -2.9748268158   -0.1880116464    2.7209427562
N        0.6263099740    1.3210573413    1.0541542947
O       -3.8355587487   -2.0176053240    3.8497116514
H       -0.2722859378   -2.4076614440    1.1360396525
H       -1.9626240658   -3.4111699024    2.7254177750
H       -0.4080600411    1.7263792131   -1.3170231059
H       -1.6365088198    0.3619685684   -1.3127946308
H        1.4387068817    0.0738823887   -1.0120534902
H       -0.2072822643   -1.1318727895   -3.4048795411
H        0.2945683413   -2.8241151987   -3.2300861170
H        1.4905617239   -1.5240621127   -3.1043298093
H       -5.4320887224   -1.7344224474    5.0519184635
H       -5.4076196952   -0.6544242914    3.6170180858
H       -4.3193781224   -0.3261452980    4.9849846850
H        0.8739912670   -2.4216060361   -0.8306105628
H       -0.8174018393   -2.0379178654   -1.1368496429
H        1.1911415473    0.8722687846    1.7757401648
H        0.0095092457    1.9771166262    1.5348671864
29   
torsion grid (120,)
C       -0.8477562061   -1.6973016609    1.7434367219
C       -1.7519258727   -2.2723372737    2.6062788548
C       -1.0937703316   -0.3809384443    1.2879899782
C       -2.8621018779   -1.4809052717    2.9700128695
C       -0.5882568461    0.8214790068   -0.9620831804
C        0.4333290837   -0.2911459406   -0.8566793880
C       -0.1298717400    0.3558758548    0.3981777096
C        0.2173031767   -1.8040859866   -2.8655941723
C       -4.8918093154   -1.2153342964    4.1818857543
C        0.0745228571   -1.6831231831   -1.3422680498
N       -2.1710266406    0.3035223425    1.6766945478
N       -3.0555735907   -0.2439151071    2.5244943740
N        0.7773266035    1.2688026316    1.0798196434
O       -3.7615039436   -2.0296283890    3.8173635407
H        0.0386154264   -2.2320259666    1.4174107481
H       -1.6439437808   -3.2777644122    3.0015146566
H       -0.2595571885    1.8069297850   -1.2760197092
H       -1.5954695131    0.5482473711   -1.2641586465
H        1.4589096452    0.0093314951   -1.0607250299
H       -0.4374180995   -1.0889416160   -3.3747468148
H       -0.0434583292   -2.8104259558   -3.2106990748
H        1.2454639957   -1.5962326290   -3.1825201608
H       -5.4816347750   -1.8372397644    4.8559930989
H       -5.4742520703   -0.9432761482    3.2979937192
H       -4.5650490500   -0.3020101022    4.6854999646
H        0.7186172707   -2.4300645475   -0.8590280988
H       -0.9544631820   -1.9273946645   -1.0549350851
H        1.3177462530    0.7619711456    1.7813363990
H        0.2226062520    1.9632556547    1.5815974765
29   
torsion grid (135,)
C       -0.6710598978   -1.5449339415    1.9452111034
C       -1.5816506906   -2.1307751253    2.7908059593
C       -1.0263760472   -0.3339807350    1.3021202268
C       -2.8126384986   -1.4550493557    2.9477646191
C       -0.5072610404    0.9078141629   -0.9177912489
C        0.4212149208   -0.2890207861   -0.8697253102
C       -0.0435403093    0.3773926871    0.4139220704
C        0.0001341940   -1.8086789802   -2.8451652702
C       -4.9738736886   -1.3241949653    3.9319747360
C       -0.0737224660   -1.6495502387   -1.3207516515
N       -2.2133475140    0.2389848053    1.4939333659
N       -3.1107448288   -0.3219885422    2.3241196609
N        0.9574512182    1.1878978921    1.0927571742
O       -3.7196539427   -2.0150203039    3.7794285621
H        0.2993305128   -1.9965733875    1.7570692423
H       -1.3975261153   -3.0620306904    3.3177102429
H       -0.1028177298    1.8654891278   -1.2286878716
H       -1.5453507902    0.7311207069   -1.1828002274
H        1.4605214132   -0.0749598781   -1.1110792313
H       -0.6089954121   -1.0475294087   -3.3442265245
H       -0.3604858615   -2.7938274553   -3.1602683808
H        1.0295539733   -1.6975022350   -3.2041616672
H       -5.5480492508   -1.9331478368    4.6309542986
H       -5.4912786593   -1.2450514809    2.9725333935
H       -4.8163977687   -0.3198582282    4.3332543078
H        0.5191103765   -2.4407521439   -0.8419266206
H       -1.1080321390   -1.7973452479   -0.9898309049
H        1.4895563031    0.6167313691    1.7494256321
H        0.4873556162    1.9094768035    1.6399581662
29   
torsion grid (150,)
C       -0.5335444152   -1.3779778700    2.1719022013
C       -1.4432643940   -1.9778399850    3.0069375906
C       -0.9711566327   -0.3150548179    1.3423116011
C       -2.7609056953   -1.4667792565    2.9656087763
C       -0.4892919497    0.9666980396   -0.8629656535
C        0.3585502688   -0.2881393091   -0.8905547836
C        0.0062751897    0.3753125602    0.4319146935
C       -0.2397711044   -1.7825033300   -2.8407104448
C       -5.0103309187   -1.5219538125    3.7347779649
C       -0.2473616224   -1.6109615517   -1.3161607217
N       -2.2350105684    0.1016863595    1.3509349724
N       -3.1357834941   -0.4758410959    2.1683507608
N        1.0955468959    1.0973614552    1.0721171727
O       -3.6680377488   -2.0405330485    3.7877905252
H        0.4986142160   -1.7167733873    2.1282831134
H       -1.1974088682   -2.8047730467    3.6661016534
H       -0.0334496090    1.9018056708   -1.1709772232
H       -1.5490058596    0.8667218909   -1.0737258291
H        1.3967233218   -0.1401576062   -1.1820089117
H       -0.8097690136   -0.9815526154   -3.3236385306
H       -0.6825421542   -2.7401100363   -3.1353897016
H        0.7812946812   -1.7489446047   -3.2375263115
H       -5.5699966217   -2.1128192641    4.4605270945
H       -5.4312657090   -1.6397980478    2.7330342808
H       -5.0268801104   -0.4626770243    4.0034132573
H        0.3046759964   -2.4385350819   -0.8498072176
H       -1.2766659563   -1.6816968600   -0.9472695205
H        1.6521580769    0.4725301452    1.6545164451
H        0.7138912366    1.8182139386    1.6844960010
29   
torsion grid (165,)
C       -0.4373002464   -1.1798948964    2.4007064997
C       -1.3636879209   -1.7685465721    3.2258476827
C       -0.8921665939   -0.3050394618    1.3819984949
C       -2.7169914905   -1.4411074306    2.9841125106
C       -0.4182974928    0.9828939579   -0.8239872380
C        0.3415973625   -0.3211257770   -0.9063221160
C        0.0916919747    0.3408115132    0.4452925580
C       -0.4156662544   -1.7448768777   -2.8510797252
C       -5.0178263170   -1.6708110974    3.5369218020
C       -0.3573322987   -1.5991116970   -1.3247587877
N       -2.1895670627   -0.0560400254    1.2117522429
N       -3.1068654677   -0.6254214326    2.0146539016
N        1.2604671328    0.9728340663    1.0332937268
O       -3.6412578682   -2.0054996492    3.7939864653
H        0.6224873460   -1.3899856629    2.5163353663
H       -1.1013217539   -2.4558940047    4.0242724757
H        0.0880614592    1.8914916683   -1.1321910896
H       -1.4898697241    0.9543283318   -0.9885370561
H        1.3766264889   -0.2342434304   -1.2324496284
H       -0.9568539147   -0.9050910964   -3.3000206796
H       -0.9237070744   -2.6706222474   -3.1422624436
H        0.5899122553   -1.7630736997   -3.2868390287
H       -5.5870023187   -2.2203357330    4.2873470311
H       -5.3091970256   -1.9780240117    2.5292534816
H       -5.1803012312   -0.5948820336    3.6398126217
H        0.1646489171   -2.4631665400   -0.8913773737
H       -1.3742531662   -1.6146744918   -0.9193293289
H        1.8500939975    0.2947493993    1.5127745882
H        0.9766167626    1.6731703546    1.7173035805
29   
torsion grid (180,)
C       -0.4266186563   -0.9745078274    2.5862021519
C       -1.3666293524   -1.5351433375    3.4173259531
C       -0.8646443200   -0.3139082337    1.4112503104
C       -2.7157286938   -1.4015132698    3.0237883075
C       -0.3898894292    0.9860031439   -0.7908379953
C        0.2966140927   -0.3501612754   -0.9265070198
C        0.1248889175    0.2891065128    0.4530059985
C       -0.5607044884   -1.6771048824   -2.8936102638
C       -5.0253707965   -1.8010930397    3.4222839944
C       -0.4675908739   -1.5828630356   -1.3646349629
N       -2.1619093882   -0.2350028262    1.1094326912
N       -3.0895326492   -0.7804761604    1.9132691361
N        1.3508012916    0.8403957109    0.9996543178
O       -3.6535036903   -1.9421754307    3.8350579460
H        0.6304148122   -1.0409052425    2.8250822330
H       -1.1135159336   -2.0602160119    4.3333077811
H        0.1539119168    1.8762048393   -1.0888854227
H       -1.4662637585    1.0108074737   -0.9207494606
H        1.3277118241   -0.3046441982   -1.2731262529
H       -1.0750813166   -0.8019893360   -3.3051376274
H       -1.1136365966   -2.5709945461   -3.2020362005
H        0.4341377617   -1.7238523972   -3.3516198392
H       -5.6069653914   -2.2966468545    4.2002963374
H       -5.1896036797   -2.2796989648    2.4533895995
H       -5.3007147964   -0.7459893958    3.3470382229
H        0.0271794200   -2.4804215060   -0.9693378242
H       -1.4751861255   -1.5655386309   -0.9395669599
H        1.9438888853    0.1166222645    1.4006620936
H        1.1486161416    1.5227354761    1.7288518042
