14   
torsion grid (-165,)
C        0.0221528686   -1.1670669599   -1.6010752317
C       -0.3301658611   -0.6970733862   -0.1876311314
C        0.1769815021    1.0618701981    1.6160771800
C        0.1875661806    0.7025542035    0.1374093017
Cl      -1.4479511966    0.8958571959    2.3959175735
Cl      -0.7134931434    1.9657451309   -0.8259607563
H        1.1069808876   -1.1792580411   -1.7567001666
H       -0.3518909037   -2.1811868191   -1.7717411748
H       -0.4205455965   -0.5123508003   -2.3570515262
H       -1.4109578307   -0.7236018933   -0.0258801605
H        0.1131404089   -1.3812064320    0.5484982767
H        0.4969588464    2.0920251034    1.7716288178
H        0.8485763170    0.3862525658    2.1513355578
H        1.2272841929    0.8004794028   -0.1929956560
14   
torsion grid (-150,)
C        0.0842235379   -1.1883123389   -1.5463680167
C       -0.4305446349   -0.6381163454   -0.2135725346
C        0.2629000120    1.0737662933    1.5813280332
C        0.1094109660    0.7597132215    0.1020562700
Cl      -1.2683254967    0.8672628086    2.5255064581
Cl      -0.8784674693    2.0423804888   -0.7400083330
H        1.1768037934   -1.2710678607   -1.5423527769
H       -0.3263832509   -2.1842131593   -1.7391279341
H       -0.2032185528   -0.5396850605   -2.3803207447
H       -1.5224573525   -0.6196432667   -0.1836965275
H       -0.1128267488   -1.3051630283    0.5981363206
H        0.5934464163    2.1008791571    1.7354844419
H        0.9917894737    0.3852754291    2.0154190016
H        1.1104564277    0.8724313392   -0.3279762621
14   
torsion grid (-135,)
C        0.1586622223   -1.2214097639   -1.4898817421
C       -0.5247610686   -0.6102664073   -0.2627969910
C        0.3030947507    1.0335410251    1.5468061708
C        0.0122393458    0.7910021312    0.0748733397
Cl      -1.1325768172    0.7675495144    2.6177977648
Cl      -1.0667228553    2.0983146770   -0.6008167747
H        1.2351587253   -1.3408453226   -1.3238749146
H       -0.2559491896   -2.2090563269   -1.7146566168
H        0.0208756059   -0.5910497760   -2.3751612629
H       -1.6075220629   -0.5646886094   -0.3958575057
H       -0.3548120568   -1.2580436776    0.6050202450
H        0.6423827043    2.0545587028    1.7210051187
H        1.0723709585    0.3304719324    1.8754743538
H        0.9653395328    0.9509800989   -0.4396442829
14   
torsion grid (-120,)
C        0.2173883709   -1.2472981355   -1.3969393134
C       -0.6086153933   -0.5620117674   -0.3025487837
C        0.3645922009    1.0145552326    1.4977988070
C       -0.0651996020    0.8379011696    0.0496483018
Cl      -0.9631409312    0.7146137183    2.6905222823
Cl      -1.2329592054    2.1590985217   -0.4290811552
H        1.2619199912   -1.3731893973   -1.0895176866
H       -0.1839445764   -2.2405571876   -1.6213687296
H        0.2069149198   -0.6637271465   -2.3240502428
H       -1.6524720596   -0.4812247112   -0.6109280711
H       -0.6095753537   -1.1782628314    0.6023374094
H        0.7310319714    2.0244500120    1.6811986410
H        1.1543825478    0.2929460594    1.7226259844
H        0.8232302136    1.0519473248   -0.5521494151
14   
torsion grid (-105,)
C       -0.3692100341   -1.1671129786   -1.6803316481
C       -0.0022655792   -0.7872454643   -0.2403240848
C        1.8452595034    0.9059807553    0.0340641590
C        0.3440788993    0.7116134376   -0.1097433383
Cl       2.3619713719    2.6312353961   -0.1197199660
Cl      -0.5027231072    1.4554734739    1.3298135952
H        0.4414438931   -0.9379533052   -2.3817189362
H       -0.5798771001   -2.2383777586   -1.7569342633
H       -1.2605561035   -0.6229978933   -2.0092506926
H       -0.8440778893   -1.0167488092    0.4161624709
H        0.8391186583   -1.3928672461    0.1165330847
H        2.3554695344    0.3598139141   -0.7634232298
H        2.1942236277    0.5455958306    1.0024257888
H       -0.0286875483    1.2734345729   -0.9669921824
14   
torsion grid (-90,)
C       -0.2597037318   -1.1543841149   -1.6708052542
C       -0.0819425374   -0.7700333226   -0.1955831017
C        1.8142972034    0.8810134683   -0.0436818550
C        0.3033297264    0.7090276376   -0.0281656126
Cl       2.3340739208    2.6054004517   -0.1986306359
Cl      -0.3547073634    1.3632828576    1.5475648533
H        0.6473933246   -0.9741260182   -2.2586739861
H       -0.5055930386   -2.2166653408   -1.7637226507
H       -1.0726885563   -0.5796923810   -2.1264186448
H       -1.0226096749   -0.9465455452    0.3316763523
H        0.6697029470   -1.4035450785    0.2895657755
H        2.2316637039    0.3561449126   -0.9061549574
H        2.2585498824    0.4877208961    0.8710843002
H       -0.1614102761    1.3219731253   -0.8017585758
14   
torsion grid (-75,)
C       -0.1557323227   -1.1766882728   -1.6579224260
C       -0.1508748243   -0.7516244642   -0.1824075044
C        1.7900373413    0.8741009121   -0.1530594400
C        0.2885401345    0.7038682422    0.0196800989
Cl       2.3006985130    2.6066501757   -0.2287417022
Cl      -0.1926258846    1.2562225965    1.6933264117
H        0.8425638269   -1.1517814735   -2.1063493035
H       -0.5300860273   -2.2004525358   -1.7533180699
H       -0.8067723648   -0.5270600297   -2.2528664528
H       -1.1612113488   -0.8557254889    0.2226243899
H        0.4928334885   -1.4110988679    0.4111585205
H        2.1070926151    0.4231337435   -1.0946788085
H        2.3314792858    0.4113065976    0.6727571797
H       -0.2483994885    1.3648588534   -0.6633306966
14   
torsion grid (-60,)
C       -0.0622300086   -1.1887804116   -1.6047737839
C       -0.2250733744   -0.7223929851   -0.1505999224
C        1.7109941944    0.9304674715   -0.2285382198
C        0.2407542080    0.7181838148    0.0965581645
Cl       2.2009047141    2.6701010925   -0.1586414468
Cl      -0.0830387457    1.1486073635    1.8391711005
H        0.9867948033   -1.3166699864   -1.8874799023
H       -0.5556510850   -2.1555605080   -1.7430830990
H       -0.5178919340   -0.4817607487   -2.3074125280
H       -1.2784167827   -0.7785647781    0.1391613246
H        0.3190723366   -1.3935772651    0.5233737324
H        1.9143739037    0.6035013082   -1.2483333443
H        2.3516864330    0.3847993328    0.4657437062
H       -0.3651213243    1.4155714624   -0.4862571076
14   
torsion grid (-45,)
C        0.0281987114   -1.2030531586   -1.5943893162
C       -0.2913735964   -0.7125304894   -0.1744896615
C        1.6644678145    0.9362917215   -0.2928096583
C        0.2313136641    0.6955938891    0.1565910341
Cl       2.1875655114    2.6525366959   -0.0664197888
Cl       0.0587596647    0.9780790755    1.9477632051
H        1.0955138212   -1.3982500856   -1.7323450828
H       -0.5017469776   -2.1407059128   -1.7877691004
H       -0.2879317230   -0.4839358700   -2.3589989782
H       -1.3724812499   -0.7092020226   -0.0076429088
H        0.1310474283   -1.4178126486    0.5492324314
H        1.7522166928    0.7369276076   -1.3603003518
H        2.3682011706    0.3081761157    0.2561902579
H       -0.4086523936    1.4491220194   -0.3084998697
14   
torsion grid (-30,)
C        0.0958190475   -1.2365821669   -1.5566068622
C       -0.3505011777   -0.6651919880   -0.2025797597
C        1.6419015529    0.9589670352   -0.3803742908
C        0.2516071417    0.7046513304    0.1841328259
Cl       2.2091575230    2.6511983600   -0.0870551566
Cl       0.2445419415    0.8719752564    1.9975232266
H        1.1655532100   -1.4643074703   -1.5718108718
H       -0.4393426998   -2.1714824590   -1.7494936511
H       -0.1212237235   -0.5589969069   -2.3901708791
H       -1.4398317495   -0.5740075602   -0.1653930295
H       -0.0767448323   -1.3863027923    0.5736965601
H        1.6262918052    0.8334034354   -1.4623175032
H        2.3867505358    0.2907213824    0.0549929851
H       -0.4015173464    1.5069460658   -0.1659439749
14   
torsion grid (-15,)
C        0.1481192997   -1.2719002496   -1.4901337162
C       -0.4105201875   -0.6044207051   -0.2241679275
C        1.5999313659    1.0107008755   -0.4476409637
C        0.2594564127    0.7262733974    0.2155659647
Cl       2.1935016662    2.6860490167   -0.1119252003
Cl       0.4328749017    0.7612009063    2.0320640299
H        1.2051711317   -1.5330307247   -1.3837341465
H       -0.3997901545   -2.2003930258   -1.6783041132
H        0.0387612571   -0.6454172006   -2.3819274315
H       -1.4823754529   -0.4198110651   -0.3409040436
H       -0.3126172473   -1.3179286680    0.5977253893
H        1.4968183414    0.9415808864   -1.5301508106
H        2.3767616360    0.3234403985   -0.1103407897
H       -0.4041206226    1.5643199849   -0.0032137437
14   
torsion grid (0,)
C        0.2074292522   -1.3291266706   -1.4352934966
C       -0.4484244148   -0.5817555559   -0.2643360958
C        1.5440909244    1.0562924162   -0.5017593105
C        0.2649668318    0.7045259930    0.2450770072
Cl       2.1603049225    2.7033542105   -0.0784082778
Cl       0.6410118879    0.5451805003    2.0306914462
H        1.2275677217   -1.6490915414   -1.2012527668
H       -0.3728771578   -2.2302668398   -1.6562339477
H        0.2381751123   -0.7323596028   -2.3521510749
H       -1.4682842403   -0.3031343472   -0.5493860576
H       -0.5477908976   -1.2714089901    0.5756589629
H        1.3526961456    1.0761875313   -1.5750006170
H        2.3459733826    0.3500437511   -0.2880980236
H       -0.4136454459    1.5560401991    0.1941878716
14   
torsion grid (15,)
C        0.2626576286   -1.3846344530   -1.3619320149
C       -0.4769884797   -0.5541343605   -0.3039705211
C        1.4719189860    1.1154417051   -0.5544584723
C        0.2643853795    0.6837981530    0.2643137144
Cl       2.1357947534    2.7116529233   -0.0239078925
Cl       0.8343861338    0.3239539544    1.9742780946
H        1.2068361825   -1.7885032711   -0.9818929581
H       -0.3598960864   -2.2353987351   -1.6552719320
H        0.4762211391   -0.8116794272   -2.2687636950
H       -1.4093447879   -0.1887254447   -0.7519429867
H       -0.7731254530   -1.1922817666    0.5300490045
H        1.1829243257    1.2455514411   -1.5990712745
H        2.2819088252    0.3906283470   -0.4890159284
H       -0.4223211664    1.5213994349    0.3832248114
14   
torsion grid (30,)
C        0.2982078490   -1.4325788736   -1.2778905743
C       -0.4966833892   -0.5114637184   -0.3444817007
C        1.4096494095    1.1779164007   -0.6065871624
C        0.2800140433    0.6669442692    0.2740104177
Cl       2.1020278940    2.7384982936   -0.0114272868
Cl       1.0030157867    0.1368298336    1.8796553103
H        1.1577753702   -1.8807083703   -0.7683000689
H       -0.3420952164   -2.2499635949   -1.6229554578
H        0.6621793371   -0.9075447981   -2.1657485896
H       -1.3250065186   -0.0742113841   -0.9186477885
H       -0.9554074936   -1.0843045840    0.4641812571
H        1.0307752958    1.3792173113   -1.6115995031
H        2.2280820077    0.4624195254   -0.6633779123
H       -0.3977021464    1.4791809963    0.5365466480
14   
torsion grid (45,)
C        0.3092527640   -1.4926172969   -1.2048755623
C       -0.5000655839   -0.4741726463   -0.3943385511
C        1.3644111538    1.2440585122   -0.6382209648
C        0.3157236729    0.6366555704    0.2807354840
Cl       2.0682971812    2.7714445889    0.0257956856
Cl       1.1436338221   -0.0317698709    1.7740172484
H        1.0764495117   -1.9717546483   -0.5885981944
H       -0.3509014062   -2.2775007628   -1.5858757078
H        0.8011057913   -1.0332018718   -2.0677637836
H       -1.2214683503    0.0218542563   -1.0585348015
H       -1.0872288878   -0.9787348033    0.3776224385
H        0.9038586974    1.5079882526   -1.5936689634
H        2.1925543876    0.5586727276   -0.8107459761
H       -0.3490957660    1.4138899112    0.6593759390
14   
torsion grid (60,)
C        0.2638678477   -1.5896363196   -1.1852594458
C       -0.5029661363   -0.4676763011   -0.4767948192
C        1.3351385185    1.2815076349   -0.6349369902
C        0.3570943504    0.5544337901    0.2766638473
Cl       2.0651502371    2.7377797170    0.1498870548
Cl       1.2547393628   -0.2524881229    1.6472272650
H        0.8835521353   -2.1490696556   -0.4795234694
H       -0.4380316658   -2.2898940164   -1.6479250022
H        0.9136511628   -1.2058662404   -1.9786709215
H       -1.1036356184    0.0940213071   -1.2047465643
H       -1.2083598076   -0.8986500859    0.2406159234
H        0.8059400179    1.6397152135   -1.5210611427
H        2.1597228973    0.6378069594   -0.9387990711
H       -0.2914424630    1.2836988293    0.7651785624
14   
torsion grid (75,)
C        0.2665196896   -1.6711563152   -1.0932341172
C       -0.4560291471   -0.4463611691   -0.5213047154
C        1.2803760236    1.4025687460   -0.6588629849
C        0.4130289725    0.5528618239    0.2604698191
Cl       2.0633111467    2.7881882481    0.1981944978
Cl       1.4251850920   -0.2861973120    1.5197490945
H        0.6954328564   -2.2818015702   -0.2961305606
H       -0.4394503842   -2.2902263793   -1.6552872419
H        1.0761866833   -1.3914413047   -1.7758299418
H       -0.9524124755    0.1141897746   -1.3235419952
H       -1.2494022622   -0.7877127788    0.1521490540
H        0.6526649889    1.8382469985   -1.4388119721
H        2.0789843405    0.8192600095   -1.1177834713
H       -0.2374317725    1.2174896467    0.8323400306
14   
torsion grid (90,)
C       -0.4979896758   -1.0234940131   -1.4380908066
C        0.4290653138   -0.8705930754   -0.2262540368
C       -0.2310326860    1.1047620552    1.3324205381
C        0.7197824276    0.5557380840    0.2777568289
Cl      -1.9665793778    1.2037117958    0.8257923352
Cl       0.9276253894    1.7519358097   -1.0818794778
H       -0.0665888574   -0.5497457328   -2.3227521585
H       -0.6331321603   -2.0879695758   -1.6558764679
H       -1.4805736390   -0.5827651968   -1.2619504035
H        0.0224494547   -1.4279022236    0.6270661675
H        1.3914321033   -1.3339331819   -0.4687865470
H        0.0619527793    2.1124390908    1.6272272290
H       -0.2028275726    0.4486848568    2.2056500304
H        1.6977561423    0.5511309131    0.7696070069
14   
torsion grid (105,)
C       -0.4352958131   -1.0360951614   -1.5123832021
C        0.3379633674   -0.8673790241   -0.1998762836
C       -0.1982560570    1.0842667801    1.4025756734
C        0.6596626279    0.5774460964    0.2528102351
Cl      -1.9761781575    1.0406944375    1.0558116577
Cl       0.6655711382    1.7917596591   -1.1081241229
H        0.1429487879   -0.6709550293   -2.3639673791
H       -0.6464788213   -2.0983530786   -1.6732618592
H       -1.3857864549   -0.4978430210   -1.4911543921
H       -0.2211231328   -1.3439835754    0.6128543186
H        1.2864211645   -1.4079832116   -0.2858791733
H        0.0476143420    2.1154530146    1.6556988076
H       -0.0382232705    0.4450271765    2.2740424264
H        1.6867859414    0.6132679272    0.6270001254
14   
torsion grid (120,)
C       -0.3655355984   -1.0714410952   -1.5611211644
C        0.2376930002   -0.8558455736   -0.1696872028
C       -0.1303403643    1.0988256332    1.4645350518
C        0.6069954247    0.5972488736    0.2313793619
Cl      -1.9317152535    1.0782408040    1.2753517927
Cl       0.4339480122    1.8174475641   -1.1175467249
H        0.3226475032   -0.7635686598   -2.3521123102
H       -0.5890003781   -2.1347423156   -1.6963595525
H       -1.2942402824   -0.5086259306   -1.6827510510
H       -0.4656352139   -1.2383106305    0.5764614163
H        1.1463369441   -1.4612328416   -0.0829481767
H        0.1497545375    2.1237515461    1.7068959422
H        0.1003533030    0.4459189485    2.3100639119
H        1.6704037821    0.6513974008    0.4781234924
14   
torsion grid (135,)
C       -0.2979019583   -1.0890105962   -1.6066356061
C        0.1260945155   -0.8148712871   -0.1606461075
C       -0.0604673201    1.1344904481    1.5059336628
C        0.5411536150    0.6344127859    0.1988411961
Cl      -1.8703751838    1.1571460125    1.5063986828
Cl       0.1923018857    1.8613551905   -1.1131882389
H        0.4891090571   -0.8294480836   -2.3204092664
H       -0.5239780571   -2.1542012214   -1.7209045435
H       -1.1919166688   -0.5196498712   -1.8697725980
H       -0.7018987736   -1.1025464218    0.4939234104
H        0.9712664164   -1.4621763652    0.0996170877
H        0.2657803618    2.1503366556    1.7272833456
H        0.2413390486    0.4685236042    2.3187086568
H        1.6263149256    0.6953612253    0.3131494772
14   
torsion grid (150,)
C       -0.2298210525   -1.1019125204   -1.6231450155
C        0.0135167201   -0.7826864700   -0.1452094483
C        0.0197833215    1.1307633622    1.5678004633
C        0.4700380731    0.6504597254    0.1926862280
Cl      -1.7756596113    1.1701715077    1.7822796064
Cl      -0.0534416005    1.8927234270   -1.0486766758
H        0.6461225205   -0.8795784001   -2.2410690414
H       -0.4606803845   -2.1663994249   -1.7330756993
H       -1.0711845140   -0.5275634568   -2.0151817974
H       -0.9101253253   -0.9878650752    0.4038440314
H        0.7777466758   -1.4559354337    0.2625477607
H        0.3799477986    2.1398915298    1.7656508925
H        0.4072292162    0.4504284152    2.3311787751
H        1.5611658510    0.7160886173    0.1713569970
14   
torsion grid (165,)
C       -0.1626108207   -1.1234837673   -1.6522323854
C       -0.1280061241   -0.7596911709   -0.1654817956
C        0.0232780867    1.1078336934    1.5877610447
C        0.3386264474    0.6630293154    0.1635427712
Cl      -1.7376432447    1.0857806777    1.9996866475
Cl      -0.3444827305    1.9046094968   -0.9956526257
H        0.8037283067   -0.9471559172   -2.1377271470
H       -0.4088378524   -2.1837073746   -1.7679701956
H       -0.9160396758   -0.5383522030   -2.1827394625
H       -1.1258490256   -0.9055619254    0.2581701392
H        0.5468850664   -1.4368622998    0.3746668624
H        0.3710566183    2.1257109137    1.7616947458
H        0.5137794668    0.4313119451    2.2928257137
H        1.4216046118    0.7471921193    0.0318430269
14   
torsion grid (180,)
C       -0.0871624903   -1.1390541780   -1.6330460221
C       -0.2488448009   -0.7168214959   -0.1705498253
C        0.0848839661    1.1119563016    1.5997956735
C        0.2465160142    0.6932712357    0.1438131511
Cl      -1.6157266554    1.0231568104    2.2104284820
Cl      -0.5607122461    1.9356814883   -0.9303219937
H        0.9536694123   -1.0496285656   -1.9650101648
H       -0.3903776125   -2.1830594782   -1.7588394279
H       -0.7044381091   -0.5242677091   -2.2919622483
H       -1.2983824140   -0.7959010540    0.1262533111
H        0.3156667910   -1.3979375142    0.4809536716
H        0.4170315072    2.1392598129    1.7475560967
H        0.6758197321    0.4446096011    2.2324350781
H        1.3112568498    0.7810127324   -0.0955800232
