24   
torsion grid (-165,)
C        0.7974426061   -1.8532966310    5.2925632322
C        1.7122146996   -2.0774412920    6.4275065259
C        3.1245713234   -1.5299041449    6.3379358691
C       -0.2626190247   -0.0243597578    1.1131914410
C        1.9957042163    0.4556181484    2.1080062916
C        1.4790178548   -1.8582152973    1.2369452304
C        0.9037277604   -0.6060471307    1.9234583437
N        1.2025911716   -1.2065720701    4.2478247813
N        0.3517460883   -0.9632079981    3.2487152689
O        1.3153931740   -2.7007992571    7.4113793890
H       -0.2177547136   -2.2552006880    5.3966766803
H        3.1076691829   -0.4453644291    6.1934891838
H        3.6462067940   -1.9558207586    5.4751672838
H        3.6597206340   -1.7772250789    7.2558806273
H       -1.0780916145   -0.7506798570    1.0084370386
H       -0.6607766773    0.8723195022    1.5969563358
H        0.0714774401    0.2412908427    0.1061775236
H        2.8366880659    0.0617164414    2.6817698024
H        1.5990296398    1.3273123363    2.6368906724
H        2.3612549498    0.7777455473    1.1282165722
H        2.2799281518   -2.2894568902    1.8452892638
H        0.7045860681   -2.6215009560    1.0983528736
H        1.8888913106   -1.6104342344    0.2522127763
H       -0.5069426467   -1.5195245215    3.2276456177
24   
torsion grid (-150,)
C        0.8684820036   -1.9722980727    5.2443082411
C        1.7540583177   -2.0771842131    6.4163770320
C        3.0925601366   -1.3621688356    6.3774681018
C       -0.2542781500    0.0692987209    1.1980797244
C        2.0750000411    0.3024327135    2.1102159262
C        1.3728163904   -1.8643582978    1.0229151069
C        0.9112152302   -0.6675849996    1.8755648571
N        1.2336173124   -1.2822192898    4.2102232788
N        0.4074786465   -1.1526501329    3.1775996954
O        1.3976542725   -2.7395129736    7.3909456900
H       -0.0923676026   -2.4968881085    5.3087929557
H        2.9536741375   -0.2913896157    6.2007533178
H        3.7046206990   -1.7422371134    5.5533782217
H        3.6071177319   -1.5224353335    7.3260326025
H       -1.1247019296   -0.5872822814    1.0786323956
H       -0.5584839533    0.9357740862    1.7920625266
H        0.0389897955    0.4121076974    0.2012687592
H        2.9322699149   -0.2014203373    2.5603044527
H        1.7738770111    1.1173020153    2.7745756426
H        2.3832263278    0.7293761616    1.1511077816
H        2.1770808716   -2.4055939721    1.5308455136
H        0.5471399300   -2.5633091911    0.8455630278
H        1.7435854360   -1.5291489157    0.0486232960
H       -0.4077472754   -1.7692750822    3.1402490292
24   
torsion grid (-135,)
C        0.8744165703   -1.9680577167    5.1677608357
C        1.6915107636   -1.9550542352    6.3904905229
C        2.9664652665   -1.1300414462    6.4019556431
C       -0.2026378011    0.1635474961    1.2118830638
C        2.1779864943    0.1915727066    2.0253709087
C        1.3013413172   -1.8265004173    0.7923808620
C        0.9505039233   -0.6884978176    1.7694985278
N        1.2439896008   -1.2858225098    4.1276973962
N        0.4876338196   -1.2758280074    3.0425168393
O        1.3324155919   -2.6081729763    7.3709581776
H       -0.0411501246   -2.5706695149    5.1962914104
H        2.7467602284   -0.0781375414    6.1954250357
H        3.6510580079   -1.4701972382    5.6187093718
H        3.4416741964   -1.2274873205    7.3791936295
H       -1.1092975148   -0.4380440073    1.0766579758
H       -0.4369270482    0.9855124469    1.8943996182
H        0.0655854087    0.5823001861    0.2368651376
H        3.0207420258   -0.3943736120    2.3978859394
H        1.9581739889    0.9698490306    2.7606333964
H        2.4711895628    0.6700535519    1.0861746838
H        2.1040210223   -2.4480052956    1.2010166617
H        0.4319052837   -2.4675679787    0.6055233279
H        1.6311830155   -1.4228275112   -0.1704336299
H       -0.3144924640   -1.9076249333    2.9981379941
24   
torsion grid (-120,)
C        0.9079150192   -2.0240439479    5.1897030105
C        1.6691079121   -1.9195229968    6.4424052397
C        2.9022811895   -1.0330311278    6.4684744108
C       -0.1917804654    0.1734143041    1.3877147664
C        2.2457201223    0.0740909709    2.0228229631
C        1.2217743395   -1.7945375975    0.6755826930
C        0.9777871782   -0.7488096838    1.7795543592
N        1.2897386996   -1.3678957639    4.1361489055
N        0.6030827936   -1.4646650482    3.0136043066
O        1.2991373190   -2.5453724259    7.4369165351
H        0.0242319261   -2.6727645698    5.2048282574
H        2.6427690172   -0.0031597383    6.2047573842
H        3.6360694167   -1.3734763216    5.7312740142
H        3.3379106723   -1.0636031121    7.4682834477
H       -1.1123273139   -0.4016265838    1.2335513430
H       -0.3773212802    0.9121953398    2.1730381738
H        0.0296459748    0.7030071431    0.4555454289
H        3.0801494236   -0.5616382422    2.3276628692
H        2.0908868080    0.8222260633    2.8038089038
H        2.5161225616    0.5867856011    1.0949835193
H        2.0566842493   -2.4486754826    0.9440576151
H        0.3336059201   -2.4183569348    0.5211638074
H        1.4536154431   -1.3047117129   -0.2755680041
H       -0.2267410017   -2.0597659088    2.9841691149
24   
torsion grid (-105,)
C        0.9380654128   -2.0538289763    5.1388039960
C        1.6285569962   -1.8690288125    6.4241888382
C        2.8230024308   -0.9327316248    6.4766573662
C       -0.1553453289    0.1883615416    1.5263044801
C        2.3274202758   -0.0051273995    1.9532666538
C        1.1546111315   -1.7224728778    0.5307224814
C        1.0244658931   -0.7797774579    1.7400260506
N        1.3479650009   -1.4244022275    4.0808283664
N        0.7427946717   -1.6205677964    2.9206507356
O        1.2292004989   -2.4686942504    7.4230404937
H        0.0838562443   -2.7412609176    5.1355120878
H        2.5364781200    0.0750661327    6.1605818328
H        3.6056882065   -1.2693532467    5.7898357796
H        3.2080007790   -0.9079107966    7.4971753089
H       -1.0923595198   -0.3609552899    1.3784365890
H       -0.2758110694    0.8444044350    2.3940200781
H        0.0093294452    0.8114693381    0.6411850703
H        3.1588959053   -0.6835342984    2.1609371781
H        2.2462705028    0.6930623512    2.7889128797
H        2.5551741598    0.5600628054    1.0446077040
H        2.0009054946   -2.4029157471    0.6626310606
H        0.2480494185   -2.3252536064    0.4011630259
H        1.3057674295   -1.1488188707   -0.3890344883
H       -0.1221027088   -2.1649316784    2.9057679679
24   
torsion grid (-90,)
C        1.0223528578   -2.1616368026    5.0792972271
C        1.6370786239   -1.9110662869    6.3939012412
C        2.7354931444   -0.8678123603    6.4912571991
C       -0.0965177841    0.1876556048    1.7201805326
C        2.4124672439   -0.1053322311    1.8634232317
C        1.0387521317   -1.6615452598    0.4369160887
C        1.0668066745   -0.8232831972    1.7247880701
N        1.4160877696   -1.4999312951    4.0371480561
N        0.8916058632   -1.7695579885    2.8464064590
O        1.2502359522   -2.5430426301    7.3769982261
H        0.2381811641   -2.9273965316    5.0441655371
H        2.3689252800    0.1083576247    6.1589181565
H        3.5733452974   -1.1303029396    5.8380830025
H        3.0740429021   -0.8060271731    7.5265311323
H       -1.0601786622   -0.3243235883    1.6173409155
H       -0.1101073863    0.7594532996    2.6534618246
H        0.0009231555    0.8906973831    0.8863141678
H        3.2317212490   -0.8265365144    1.9326802196
H        2.4396618748    0.5246471407    2.7543478042
H        2.5744216459    0.5243214952    0.9834099550
H        1.8738270484   -2.3678552317    0.4166072917
H        0.1055903888   -2.2318688037    0.3552523848
H        1.1066394057   -1.0132571884   -0.4418434294
H        0.0467249971   -2.3453528724    2.8175692025
24   
torsion grid (-75,)
C        1.1001556003   -2.2476391357    5.0420067204
C        1.6078444263   -1.9274978469    6.3891019056
C        2.5736364384   -0.7669064054    6.5401782457
C        0.0193306461    0.1889017500    1.9125496721
C        2.5138662263   -0.2040960127    1.7597120427
C        0.9301344822   -1.6184363931    0.4052685277
C        1.1298444183   -0.8620256614    1.7262180277
N        1.4721269872   -1.5452042927    4.0211147812
N        1.0489021166   -1.8768405900    2.7995997162
O        1.2391775684   -2.5995658183    7.3516825326
H        0.4126414291   -3.0990787203    4.9690155247
H        2.1194682254    0.1602701444    6.1772164718
H        3.4721975004   -0.9355236190    5.9387178951
H        2.8422084507   -0.6638973731    7.5925169282
H       -0.9713325679   -0.2793190795    1.8873470786
H        0.1337196594    0.6965547049    2.8753318981
H        0.0572999377    0.9423484460    1.1188376146
H        3.3005348870   -0.9582661621    1.6629297075
H        2.6713443396    0.3356474690    2.6954354759
H        2.6029691604    0.5025894305    0.9290659834
H        1.7178536587   -2.3638839272    0.2613002773
H       -0.0388861046   -2.1319956072    0.3826104803
H        0.9519050665   -0.9212198453   -0.4371470457
H        0.2431607207   -2.5053324354    2.7447225737
24   
torsion grid (-60,)
C        1.4352937410   -2.4551438797    4.9110162780
C        1.7944659530   -2.1114465252    6.3004319848
C        1.9434721926   -0.6471014429    6.6680964061
C        0.3453641381    0.4387647329    2.0852350447
C        2.6190841948   -0.5456281377    1.5845023272
C        0.5605423603   -1.4515428796    0.4339891779
C        1.1149513465   -0.8395297073    1.7265285775
N        1.2628305454   -1.5225548203    4.0323694827
N        0.8834710549   -1.8427624763    2.7908717676
O        1.9663643259   -3.0116715845    7.1211528966
H        1.3245556603   -3.5228734492    4.6856120266
H        1.0105036556   -0.1076812204    6.4780708079
H        2.7137955483   -0.1733927752    6.0517252322
H        2.2110509289   -0.5716073986    7.7230031405
H       -0.7230637879    0.2267697589    2.1881918919
H        0.7057779250    0.8540385500    3.0293129090
H        0.4797946707    1.1902938446    1.3010785370
H        3.1739692024   -1.4559215848    1.3303681058
H        3.0187845643   -0.1517947915    2.5232982734
H        2.7973634516    0.1925663435    0.7957682135
H        1.0851506943   -2.3791661748    0.1739626050
H       -0.5066631027   -1.6731803074    0.5329757555
H        0.6922338553   -0.7551291403   -0.3986194206
H        1.0252310710   -2.8159568542    2.5082534761
24   
torsion grid (-45,)
C        1.5055532562   -2.4661293770    4.9109820867
C        1.7275761027   -2.1055387534    6.3235115655
C        1.6708041172   -0.6400960300    6.7133438002
C        0.4991642960    0.4421274212    2.1907335104
C        2.6504452894   -0.6186651972    1.4139128216
C        0.4397977566   -1.4057884668    0.4740737723
C        1.1578122677   -0.8578202135    1.7139183532
N        1.2730133407   -1.5454850533    4.0319275875
N        1.0181634102   -1.8865896708    2.7677197930
O        1.9552064357   -2.9913312849    7.1467794074
H        1.5440294148   -3.5349944160    4.6681586737
H        0.6926537686   -0.2155657622    6.4673119704
H        2.4150157565   -0.0650747164    6.1536738447
H        1.8586432650   -0.5505449620    7.7842632080
H       -0.5495130387    0.2707078537    2.4517697136
H        1.0083190886    0.8425942853    3.0691333075
H        0.5422905818    1.1874083312    1.3907218248
H        3.1354567607   -1.5403126442    1.0720079579
H        3.1672750916   -0.2736436258    2.3146681437
H        2.7758404360    0.1384325676    0.6327273287
H        0.8751686560   -2.3592195996    0.1506649836
H       -0.6229667196   -1.5650143405    0.6792362675
H        0.5328225688   -0.7029254600   -0.3587494966
H        1.2680096263   -2.8378202428    2.4852303420
24   
torsion grid (-30,)
C        1.6201154015   -2.4401699320    4.9129094711
C        1.7161978568   -2.0746031889    6.3361746787
C        1.4816337397   -0.6272254378    6.7293865669
C        0.6641991890    0.4574234409    2.2416732680
C        2.6722910531   -0.6500185610    1.2016930238
C        0.3451358699   -1.3847005792    0.5451861622
C        1.2239030219   -0.8572587537    1.6885579765
N        1.3424727009   -1.5381371453    4.0249294379
N        1.2097128463   -1.8857034281    2.7498845743
O        1.9851344332   -2.9398948889    7.1695413990
H        1.7879436621   -3.4954431382    4.6663281343
H        0.4828841309   -0.3023898981    6.4220860333
H        2.1972117817    0.0286874670    6.2238841437
H        1.5892934526   -0.5323684979    7.8108930332
H       -0.3362948131    0.3112958343    2.6588331938
H        1.3025098159    0.8630752130    3.0284233073
H        0.6003931550    1.1879376126    1.4296146242
H        3.0911238481   -1.5814493607    0.8032058941
H        3.3072441901   -0.3146942524    2.0276252145
H        2.7130510594    0.1025346434    0.4072115856
H        0.7052968560   -2.3556629700    0.1845041211
H       -0.6899217173   -1.5057606740    0.8777077367
H        0.3630685384   -0.6910796557   -0.3007587876
H        1.5273032156   -2.8180787073    2.4743880360
24   
torsion grid (-15,)
C        1.7190824964   -2.4101497526    4.9221232905
C        1.7012763776   -2.0555171849    6.3493360404
C        1.3332318698   -0.6343626147    6.7379688402
C        0.8157017066    0.4853156360    2.2687769513
C        2.6673533491   -0.6620246085    1.0047476657
C        0.2694713451   -1.3752232725    0.6542569453
C        1.2905902406   -0.8432346002    1.6738029891
N        1.4256727249   -1.5199096362    4.0248988345
N        1.4148723312   -1.8522568102    2.7444238029
O        1.9833149868   -2.9071044944    7.1931437218
H        1.9842544688   -3.4455101529    4.6772508615
H        0.3324285719   -0.3826303917    6.3738684389
H        2.0251378705    0.0804002169    6.2817412994
H        1.3684330219   -0.5447329602    7.8247191072
H       -0.1365932453    0.3655343099    2.7919490574
H        1.5411878228    0.8873263375    2.9788472383
H        0.6809491074    1.2070173533    1.4576450733
H        3.0282480219   -1.6077173707    0.5836993011
H        3.4034588998   -0.3081773512    1.7331375543
H        2.6096038690    0.0655714909    0.1885821202
H        0.5750016709   -2.3528768696    0.2633270974
H       -0.7151341267   -1.4854947710    1.1179213655
H        0.1824716852   -0.6906548250   -0.1952371416
H        1.7612936012   -2.7749391644    2.4738990717
24   
torsion grid (0,)
C        1.7552673254   -2.3906707097    4.9009537671
C        1.6226223663   -2.0696713898    6.3289036369
C        1.1776122611   -0.6705862904    6.7185007126
C        0.9403401227    0.5371092479    2.2585284064
C        2.6412572910   -0.6450107009    0.8219203844
C        0.2199277807   -1.3599810589    0.7624132071
C        1.3514140122   -0.8054339795    1.6478703962
N        1.4958588596   -1.4898426641    4.0023653672
N        1.6135679070   -1.7826978469    2.7212144576
O        1.8715485059   -2.9300408383    7.1747005394
H        2.0772637743   -3.4092322189    4.6543029028
H        0.1959476272   -0.4456290506    6.2902436869
H        1.8731727617    0.0779746289    6.3266942709
H        1.1332618660   -0.6043949193    7.8066101712
H        0.0272058812    0.4420628758    2.8507350515
H        1.7227575317    0.9341913613    2.9092994036
H        0.7607472060    1.2514583227    1.4496136699
H        2.9683101815   -1.6074244622    0.4111590881
H        3.4484766365   -0.2464105853    1.4436991417
H        2.4788693381    0.0370333740   -0.0187787944
H        0.4911913940   -2.3353130707    0.3418385192
H       -0.6978341974   -1.4821991213    1.3452501794
H        0.0156865008   -0.6824040093   -0.0728435907
H        1.9220333204   -2.7173989347    2.4478049569
24   
torsion grid (15,)
C        1.7798470724   -0.7055435900    5.4306883983
C        1.6951307204   -1.7573175022    6.4552220030
C        1.2288851090   -3.1403628212    6.0357660148
C        0.7849670390   -1.6957524403    1.6528559729
C        0.4018676205    0.7686590412    1.2695069586
C        2.7402986168   -0.1821145026    1.1755453953
C        1.3570930338   -0.2888553412    1.8475570412
N        1.4608405245   -0.9658343558    4.2001387871
N        1.5092391418   -0.0079511551    3.2890087400
O        2.0019444448   -1.5008097049    7.6200576874
H        2.1156435757    0.2820444538    5.7685023893
H        1.8903364009   -3.5524387600    5.2673542716
H        0.2268719125   -3.0926550817    5.5984647777
H        1.2235616995   -3.7920093016    6.9107638497
H        1.4639396243   -2.4598772403    2.0365807079
H       -0.1728170772   -1.8073193009    2.1677273962
H        0.6297043604   -1.8685172908    0.5837485233
H        0.7776947977    1.7820335474    1.4532628837
H       -0.5882017409    0.6835674665    1.7268096226
H        0.3001222564    0.6437094888    0.1869501849
H        3.1698225524    0.8169454892    1.3143854417
H        3.4314204872   -0.9147370201    1.6035621651
H        2.6639156339   -0.3652117349    0.0987403194
H        1.9186976970    0.8926704247    3.5452437997
24   
torsion grid (30,)
C        1.6733695575   -0.6707553639    5.4235685658
C        1.7007544696   -1.7398518747    6.4360145592
C        1.3759358893   -3.1569236371    5.9993533053
C        0.6471240114   -1.6428561404    1.6222876736
C        0.4973609523    0.8349703629    1.1617923141
C        2.7524425567   -0.2942171236    1.3245215634
C        1.3026914782   -0.2767449804    1.8497364098
N        1.3796467318   -0.9458006406    4.1917765768
N        1.3123100860    0.0316189451    3.2947390726
O        1.9858245740   -1.4667107348    7.6020669380
H        1.9050982604    0.3417345784    5.7753493966
H        2.0721744006   -3.4883734250    5.2226876752
H        0.3722843669   -3.2050542170    5.5659149244
H        1.4414052096   -3.8178488819    6.8648647111
H        1.2337649653   -2.4464473317    2.0706831142
H       -0.3559063785   -1.6719392731    2.0576244045
H        0.5660447249   -1.8252486071    0.5465155933
H        0.9287300616    1.8219421158    1.3677042091
H       -0.5390630276    0.8345684506    1.5116820638
H        0.5013729814    0.6931305897    0.0769219767
H        3.2376524193    0.6772076456    1.4749154235
H        3.3382451115   -1.0547570949    1.8500513850
H        2.7768649904   -0.5189602845    0.2530359456
H        1.6854565314    0.9468546164    3.5573189729
24   
torsion grid (45,)
C        1.5627473559   -0.6377207163    5.4525752076
C        1.7177092480   -1.7013494739    6.4621152945
C        1.5632944711   -3.1450728748    6.0210284704
C        0.4764615204   -1.6035134136    1.6110414519
C        0.5814183502    0.8704098427    1.1272548522
C        2.7103541136   -0.4396329925    1.5030982008
C        1.2254334152   -0.2948281311    1.8892184477
N        1.3054658658   -0.9397796719    4.2208997825
N        1.1122856361    0.0317819688    3.3275477334
O        1.9695937720   -1.3987147294    7.6279652429
H        1.6711766597    0.3936001600    5.8096790175
H        2.2893592118   -3.3871672414    5.2387713751
H        0.5699494352   -3.3108469384    5.5928453473
H        1.7123838308   -3.7970015189    6.8829645097
H        0.9324037937   -2.4394200225    2.1445072007
H       -0.5682670389   -1.5253022553    1.9267428551
H        0.5017723121   -1.8170556665    0.5381573986
H        1.0824222053    1.8195653021    1.3536823569
H       -0.4762031917    0.9686729764    1.3893400029
H        0.6597982379    0.7067291768    0.0486807016
H        3.2596035727    0.4888600423    1.6974988530
H        3.1764513656   -1.2412060524    2.0842628934
H        2.8163575160   -0.6779946735    0.4395538001
H        1.4262045367    0.9701388145    3.5883241385
24   
torsion grid (60,)
C        1.4939870816   -0.6422389362    5.4456076559
C        1.7870285110   -1.6887397392    6.4440425390
C        1.8347633125   -3.1340724968    5.9852590872
C        0.3285166139   -1.5363277905    1.5235171663
C        0.7038781316    0.9219460362    1.1162689299
C        2.6688373567   -0.5865849583    1.6116468065
C        1.1801331990   -0.3139010306    1.8902705608
N        1.2911442876   -0.9594188327    4.2089235104
N        0.9704194838   -0.0080392524    3.3245486083
O        1.9869958453   -1.3684233291    7.6148801970
H        1.4570614475    0.3894470537    5.8162562054
H        2.5924826626   -3.2645304017    5.2064770946
H        0.8764053782   -3.4284052019    5.5466001522
H        2.0655649000   -3.7702735097    6.8408980234
H        0.6258174224   -2.4048435648    2.1158915700
H       -0.7305773958   -1.3368673515    1.7124513665
H        0.4559321971   -1.7782293285    0.4637938275
H        1.2941145754    1.8088314349    1.3775799656
H       -0.3493345959    1.1322427414    1.3267123989
H        0.8148998548    0.7580611545    0.0409143341
H        3.2833444050    0.2801990571    1.8805621744
H        3.0137364846   -1.4446008628    2.1957491530
H        2.8317368457   -0.8024411234    0.5506829663
H        1.1869241517    0.9547898433    3.5956941530
24   
torsion grid (75,)
C        1.0709108523   -0.8698788481    5.4365884274
C        1.4955842953   -1.8903976592    6.4129285654
C        2.3954437989   -3.0150843135    5.9356904217
C        0.0271587359   -1.1902765603    1.4746214492
C        1.0999516054    1.0740128194    1.1766070241
C        2.5428610782   -0.9477479079    1.5933734599
C        1.1965032881   -0.2798628689    1.8941684880
N        1.4585511294   -0.9452573400    4.2045512161
N        1.1131809894    0.0130715532    3.3418936384
O        1.1128031062   -1.8103482142    7.5796341570
H        0.4295833087   -0.0661627197    5.8183114367
H        3.3282201276   -2.6130515423    5.5284280374
H        1.9136946902   -3.5757656988    5.1286755104
H        2.6091207803   -3.6785040905    6.7749546452
H        0.0681085040   -2.1379759128    2.0204540691
H       -0.9364578118   -0.7133380508    1.6873995000
H        0.0668878591   -1.4081197883    0.4022053387
H        1.9304290293    1.7259205326    1.4633344458
H        0.1604197411    1.5865140302    1.4171928725
H        1.1274673879    0.9307543171    0.0926324957
H        3.3696129801   -0.3137664267    1.9273452159
H        2.6263665799   -1.9120705044    2.0982086186
H        2.6385944431   -1.1079693562    0.5152050596
H        0.3417175905    0.6262570692    3.6177861043
24   
torsion grid (90,)
C        0.9892966201   -0.9550497739    5.4209756975
C        1.5239872602   -1.9079596073    6.4083654687
C        2.5628200408   -2.9147779532    5.9486489504
C       -0.0783451866   -1.0808301357    1.3118512069
C        1.2076698500    1.0857089641    1.2267361822
C        2.4320048763   -1.0787730886    1.6267746465
C        1.1316766079   -0.3073250225    1.8711597536
N        1.4015333587   -0.9856383096    4.1929678691
N        0.9488611493   -0.0900638954    3.3216139564
O        1.1208402775   -1.8715127942    7.5710020161
H        0.2464739277   -0.2365798787    5.7877560735
H        3.4420414194   -2.4030505689    5.5454143983
H        2.1627837067   -3.5387112063    5.1433587453
H        2.8495595622   -3.5390850381    6.7961233157
H       -0.1649280924   -2.0582302481    1.7969544435
H       -1.0096331249   -0.5288509902    1.4833307149
H        0.0244909084   -1.2389477366    0.2331869574
H        2.0771593488    1.6365796670    1.5971069960
H        0.3093923175    1.6746593599    1.4480899523
H        1.2850498094    0.9991026097    0.1387948369
H        3.2811826524   -0.5621691033    2.0829668293
H        2.3839922058   -2.0859356202    2.0447021200
H        2.6063400577   -1.1539461920    0.5492415419
H        0.1330182213    0.4652773123    3.5904952316
24   
torsion grid (105,)
C        0.8970816994   -1.0729360851    5.4130166231
C        1.5134721543   -1.9584777001    6.4124847975
C        2.6530775183   -2.8618876151    5.9751035038
C       -0.1273367830   -0.9738769533    1.1432319378
C        1.3199058758    1.0812056989    1.3429406101
C        2.3381354912   -1.2034571190    1.6465809284
C        1.0858052167   -0.3493336333    1.8595706909
N        1.3246966124   -1.0722988099    4.1879536160
N        0.7876192561   -0.2494151850    3.3020897369
O        1.0974533711   -1.9530950368    7.5716734139
H        0.0806956892   -0.4307986245    5.7642945533
H        3.4818288348   -2.2698725888    5.5748601167
H        2.3266343722   -3.5319107382    5.1736740196
H        2.9910674831   -3.4449155798    6.8330890104
H       -0.3210481573   -1.9815595282    1.5238533278
H       -1.0286401665   -0.3694024383    1.2976694420
H        0.0500429648   -1.0390620730    0.0647622848
H        2.1901691883    1.5291253769    1.8314414546
H        0.4505165975    1.7192202457    1.5407068876
H        1.4885226766    1.0764480188    0.2615309433
H        3.1899501224   -0.7969367349    2.1978266763
H        2.1826994607   -2.2320879095    1.9784370910
H        2.5828258484   -1.2118924032    0.5802745348
H       -0.0447574752    0.2808057345    3.5677120740
24   
torsion grid (120,)
C        0.8556742348   -1.1296775681    5.4327484708
C        1.5492472590   -1.9334814528    6.4488525954
C        2.7454847508   -2.7663002888    6.0213697315
C       -0.1581621684   -0.8782224411    1.0334724185
C        1.3944496357    1.0586686045    1.4961512614
C        2.2467170097   -1.3084975409    1.6565242135
C        1.0391669739   -0.3921459479    1.8712467477
N        1.2657500967   -1.1393390961    4.2006533049
N        0.6429640923   -0.4129638559    3.2921014120
O        1.1531465613   -1.9186047216    7.6152439843
H       -0.0030573829   -0.5401414045    5.7748070768
H        3.5230061768   -2.1297308410    5.5879541567
H        2.4573773138   -3.4853481077    5.2482738130
H        3.1380035832   -3.2933825838    6.8922602302
H       -0.4208898313   -1.9063825418    1.2998262249
H       -1.0379357341   -0.2454102834    1.1991909717
H        0.0790376484   -0.8443041593   -0.0346850345
H        2.2462360405    1.4095579240    2.0862826391
H        0.5489928632    1.7313914851    1.6814731706
H        1.6512645443    1.1313324059    0.4344347351
H        3.1033589748   -0.9837551478    2.2516946431
H        2.0175415948   -2.3402125905    1.9330764000
H        2.5247717510   -1.2823100348    0.5987499707
H       -0.1706401133    0.1406532492    3.5661926345
24   
torsion grid (135,)
C        0.8515708831   -1.1610087624    5.4991794264
C        1.6224915709   -1.8709302900    6.5310448223
C        2.8498203810   -2.6578187930    6.1059608844
C       -0.1914997174   -0.8003421548    1.0116510678
C        1.4331434439    1.0060513164    1.7175913204
C        2.1517548133   -1.4113787168    1.6924326842
C        0.9844445329   -0.4507793927    1.9397513232
N        1.2216218619   -1.2130532150    4.2566055365
N        0.5069819052   -0.5973092275    3.3291929490
O        1.2638929881   -1.8133581054    7.7078472197
H       -0.0307758796   -0.6068345918    5.8406197820
H        3.5775322001   -2.0013465233    5.6188623600
H        2.5800846473   -3.4277309884    5.3765925118
H        3.2967361569   -3.1192667593    6.9878004283
H       -0.4962909699   -1.8410071544    1.1546089222
H       -1.0580514365   -0.1592595890    1.2124574764
H        0.0905277033   -0.6578164644   -0.0362511662
H        2.2567916175    1.2598153312    2.3919472410
H        0.6091728049    1.7047903001    1.9038622264
H        1.7702014336    1.1553726884    0.6866343495
H        3.0064563615   -1.1760056257    2.3298623981
H        1.8593204103   -2.4458548532    1.8901930349
H        2.4610538437   -1.3290118528    0.6462288846
H       -0.2558090837    0.0157226355    3.6240708230
24   
torsion grid (150,)
C        0.7882449403   -1.2364059160    5.4791954120
C        1.6111057618   -1.8435198989    6.5388904561
C        2.9135484539   -2.5164079615    6.1449178308
C       -0.2045573330   -0.6857070519    0.9502753791
C        1.5159918612    0.9205806392    1.8860974796
C        2.0587875773   -1.5319103964    1.6383979880
C        0.9549311876   -0.5128859254    1.9432351802
N        1.1775372074   -1.2804746494    4.2440442801
N        0.4041172590   -0.7752255676    3.2892803222
O        1.2329204801   -1.7907124678    7.7092690555
H       -0.1495794624   -0.7656364371    5.7976297114
H        3.5791498202   -1.8033433064    5.6485723234
H        2.7280630503   -3.3253290762    5.4316885843
H        3.3931738316   -2.9112450855    7.0417310357
H       -0.5801492740   -1.7126647502    0.9724237991
H       -1.0360563726   -0.0111876759    1.1881744752
H        0.1264832037   -0.4546110901   -0.0666561202
H        2.3155750040    1.0458226066    2.6228112968
H        0.7337383138    1.6582869031    2.0995243709
H        1.9229693772    1.1408151036    0.8936585539
H        2.9122558251   -1.4105083903    2.3078836633
H        1.6853243749   -2.5540093701    1.7476791750
H        2.3990981788   -1.3926175524    0.6078776867
H       -0.3806858505   -0.1847098884    3.5748738684
24   
torsion grid (165,)
C        0.7597977781   -1.2915743946    5.4563383764
C        1.6366700590   -1.7648281561    6.5432806342
C        3.0203655479   -2.2753828171    6.1862706849
C       -0.2240992378   -0.5587015879    0.9369969647
C        1.6128584768    0.8067333975    2.0189503141
C        1.9602755302   -1.6486715643    1.5398774620
C        0.9389973482   -0.5751992915    1.9381551517
N        1.1734959184   -1.3111557957    4.2303952660
N        0.3542585959   -0.9310989964    3.2489578980
O        1.2329515488   -1.7326561869    7.7052743926
H       -0.2363218311   -0.9393566576    5.7506557898
H        3.5985287382   -1.4947889017    5.6820648415
H        2.9512324505   -3.1170622484    5.4903899069
H        3.5303726975   -2.5856148011    7.0994073147
H       -0.6897845008   -1.5461284411    0.8678268925
H       -0.9936628091    0.1658864783    1.2306415653
H        0.1350387975   -0.2717312838   -0.0554088015
H        2.4052366671    0.7980335913    2.7736495400
H        0.8880386660    1.5825523716    2.2914643219
H        2.0564306949    1.0821610583    1.0563755793
H        2.8014006602   -1.6708710120    2.2353602577
H        1.4948281835   -2.6387008639    1.5340678863
H        2.3416427155   -1.4354424643    0.5366679263
H       -0.4770071792   -0.3987556945    3.5182365387
24   
torsion grid (180,)
C        0.7647536903   -1.7369602064    5.3236528813
C        1.6910159966   -2.0851106952    6.4187047114
C        3.1582978904   -1.7322797516    6.2635903484
C       -0.2808160712   -0.1614477004    1.0549983248
C        1.9119542755    0.6066010841    2.0366253376
C        1.5897296782   -1.8193930570    1.4078251097
C        0.9065535628   -0.5487445490    1.9449977836
N        1.2052895493   -1.1523613733    4.2582156606
N        0.3481154253   -0.7950629893    3.2949797349
O        1.2571871608   -2.6507318421    7.4213272803
H       -0.2898343605   -1.9976439554    5.4754538630
H        3.2803065535   -0.6543738842    6.1198137255
H        3.5776356057   -2.2189613962    5.3775330318
H        3.6969135719   -2.0543429413    7.1559368113
H       -1.0112222814   -0.9768845846    0.9864572553
H       -0.7881454082    0.7267315613    1.4445941676
H        0.0647990984    0.0567680789    0.0408407861
H        2.7247441331    0.3551771599    2.7220726501
H        1.4219304780    1.5142003964    2.4018328568
H        2.3399539281    0.8118850328    1.0504902402
H        2.4138107101   -2.1138420726    2.0638035922
H        0.8799404025   -2.6526867075    1.3538031284
H        1.9907655892   -1.6487588252    0.4034085895
H       -0.5641036512   -1.2587502471    3.3063690531
