18   
torsion grid (-165,)
C        0.1938986803    0.8964779016    1.1845193752
C       -0.1790711789   -0.7989138701   -0.1276583319
C        1.0284016229    0.1475482836    0.0943501463
C       -0.7180703969   -0.3539762941    1.2594203365
C       -3.1190560033    0.5760328173    0.0677759163
N        1.5471927115    0.8194645178   -1.0891029268
S       -2.5039249830   -0.2007432697    1.5997665100
H        0.6896725520    1.2181867128    2.1052528056
H       -0.3351313884    1.7509621195    0.7472651575
H       -0.8006003868   -0.4299324361   -0.9494701050
H        0.0146869322   -1.8632770971   -0.2823414219
H        1.8543483033   -0.3981097101    0.5620015641
H       -0.3692825246   -1.0532700162    2.0249381097
H       -4.1667862094    0.8263172354    0.2518590001
H       -3.0678198410   -0.1064801262   -0.7837639230
H       -2.5816067528    1.5003365094   -0.1639803031
H        0.8183256443    1.3994855226   -1.5038383764
H        2.3082209492    1.4474050404   -0.8334127224
18   
torsion grid (-150,)
C        0.2749110185    0.9088155100    1.2212887270
C       -0.2372970246   -0.6948475713   -0.1526569929
C        1.0412198089    0.1470542230    0.0919386456
C       -0.7172780336   -0.2793031772    1.2659362538
C       -3.1855291653    0.4660183727    0.0433616504
N        1.5986733300    0.8248957994   -1.0702740949
S       -2.4844213754   -0.0121617967    1.6586602970
H        0.8047446231    1.1661760416    2.1434458803
H       -0.2099033395    1.8079859897    0.8236888256
H       -0.8379463861   -0.2372876503   -0.9443635896
H       -0.1280688099   -1.7617354040   -0.3632160628
H        1.8271729672   -0.4788197330    0.5268396442
H       -0.3977522033   -1.0442883521    1.9791521660
H       -4.2309364276    0.7215365722    0.2345490448
H       -3.1519952363   -0.3582563078   -0.6725607377
H       -2.6893645856    1.3455833416   -0.3776665086
H        0.9190088019    1.4877424408   -1.4421674444
H        2.4181597682    1.3684055420   -0.8023748931
18   
torsion grid (-135,)
C        0.3575471110    0.9127075343    1.2509238795
C       -0.2851228446   -0.5833652760   -0.1850214368
C        1.0574092213    0.1423866003    0.0857500077
C       -0.7229608615   -0.1982481959    1.2548544931
C       -3.2625506397    0.3591953929    0.0359649374
N        1.6620036287    0.8222002757   -1.0514608141
S       -2.4639004285    0.2132663143    1.6711092354
H        0.9121375161    1.0890903476    2.1776618212
H       -0.0626794510    1.8605432070    0.8962787209
H       -0.8517113412   -0.0428195018   -0.9488788831
H       -0.2612815300   -1.6444000507   -0.4463287409
H        1.7926182054   -0.5624616764    0.4871301173
H       -0.4526165500   -1.0109288580    1.9342740057
H       -4.3150847502    0.5716591972    0.2412507859
H       -3.1985836430   -0.5733192091   -0.5291412376
H       -2.8549103122    1.1831155386   -0.5563638984
H        1.0375086466    1.5553943444   -1.3862153373
H        2.5255757534    1.2834978563   -0.7682068452
18   
torsion grid (-120,)
C        0.4195482484    0.9121727974    1.2705389879
C       -0.3202464529   -0.4641558709   -0.2339924018
C        1.0709824730    0.1427187280    0.0773632659
C       -0.7398467259   -0.1180848563    1.2197757025
C       -3.3380690697    0.2426699045    0.0519374326
N        1.7391494544    0.8213847969   -1.0238400571
S       -2.4418174556    0.4467042767    1.6310868292
H        0.9792825300    1.0055085145    2.2062154410
H        0.0712713680    1.9017668998    0.9556759016
H       -0.8403315420    0.1578595616   -0.9686458578
H       -0.3747866571   -1.5087499420   -0.5509018275
H        1.7446444493   -0.6341545161    0.4530213331
H       -0.5246398550   -0.9632744271    1.8788681726
H       -4.3854036059    0.4612403112    0.2764408198
H       -3.2685071643   -0.7814908715   -0.3217916919
H       -2.9957682143    0.9423785226   -0.7144670159
H        1.1811666283    1.6191275709   -1.3267455726
H        2.6367693220    1.1938924402   -0.7169586507
18   
torsion grid (-105,)
C        0.3283126292    1.5632262844   -0.0898014245
C       -0.2337213140   -0.3972490838    0.6480234271
C        1.0973947326    0.2260893042    0.1581103686
C       -0.7648539098    1.0407121659    0.8827295491
C       -3.3551747901   -0.1206909304    0.6382006659
N        1.7911605949   -0.4873939694   -0.9040656823
S       -2.5041213713    1.4906776662    0.5018891699
H        0.8220958514    2.5074615254    0.1590926516
H       -0.0527111922    1.6108321695   -1.1154229020
H       -0.7455024866   -0.8831159604   -0.1886237301
H       -0.2069283559   -1.0837158700    1.4980315199
H        1.7916802226    0.3401708563    0.9967848899
H       -0.5389503810    1.3860708062    1.8954341154
H       -4.4176820583    0.0839208682    0.4828573848
H       -3.2269463006   -0.5631975377    1.6293969730
H       -3.0209814286   -0.8246790819   -0.1270026986
H        1.2061885726   -0.5178631174   -1.7384789603
H        2.6441387158    0.0062577452   -1.1635745067
18   
torsion grid (-90,)
C        0.3479539628    1.5617662086   -0.0749442355
C       -0.2429845321   -0.4373430907    0.5300768712
C        1.1083014321    0.2137279688    0.1438788662
C       -0.7983121270    0.9849636329    0.8021272361
C       -3.3976854570   -0.0900721591    0.7557299318
N        1.8623990670   -0.4413746903   -0.9140726547
S       -2.4962821944    1.4285984449    0.2884846311
H        0.8223276307    2.4903983545    0.2559740322
H        0.0297720753    1.6660946569   -1.1176636435
H       -0.7128121559   -0.8794012861   -0.3551493994
H       -0.2553813007   -1.1655061350    1.3451151642
H        1.7558912190    0.2876113056    1.0235443918
H       -0.6465091697    1.2938069125    1.8405541247
H       -4.4411561856    0.0629880523    0.4688379797
H       -3.3533066018   -0.2699916260    1.8335061956
H       -3.0108209759   -0.9611129249    0.2216185322
H        1.3200474852   -0.4387169282   -1.7773166551
H        2.7219555585    0.0710771442   -1.1067205581
18   
torsion grid (-75,)
C        0.3500504984    1.5506065067   -0.0615068195
C       -0.2270688006   -0.4859599053    0.4375864484
C        1.1255058406    0.2064050799    0.1346402903
C       -0.8313340921    0.9160466055    0.7203391838
C       -3.4410610487   -0.0427628760    0.8449027043
N        1.9351920138   -0.3890618852   -0.9172655851
S       -2.4929017260    1.3260222887    0.0947732473
H        0.7865243739    2.4702779430    0.3388518059
H        0.0912867546    1.7005727505   -1.1153920068
H       -0.6519503075   -0.9175253959   -0.4752745911
H       -0.2540467853   -1.2323059608    1.2358222302
H        1.7358280775    0.2559567045    1.0422871431
H       -0.7690934505    1.1808354765    1.7803809559
H       -4.4814112951    0.0739481040    0.5314094343
H       -3.3965320996   -0.0058738391    1.9372806382
H       -3.0730527866   -1.0110898255    0.4954710226
H        1.4226262967   -0.3733115796   -1.7983927261
H        2.7848362669    0.1547336486   -1.0623325650
18   
torsion grid (-60,)
C        0.3322593210    1.5235364139   -0.0595990694
C       -0.1885374023   -0.5507585896    0.3405375572
C        1.1490259617    0.2015748782    0.1261442504
C       -0.8601437580    0.8195779594    0.6365855886
C       -3.5006989498    0.0297227199    0.9374750130
N        2.0285632949   -0.3242218653   -0.9066475464
S       -2.5005356123    1.1902798163   -0.0561080805
H        0.7105618728    2.4444064823    0.3935742096
H        0.1220360881    1.7032371561   -1.1200843512
H       -0.5566366927   -0.9685291404   -0.6026344981
H       -0.2226188992   -1.3219639052    1.1147255889
H        1.7152294739    0.2418519545    1.0624827666
H       -0.8716272853    1.0321986982    1.7104005949
H       -4.5409935046    0.1394767521    0.6214996521
H       -3.4297090645    0.2636379893    2.0038550510
H       -3.1868392740   -1.0038946671    0.7668570215
H        1.5545246716   -0.3015326204   -1.8089093109
H        2.8595374893    0.2589138083   -0.9965736268
18   
torsion grid (-45,)
C        0.3011198049    1.4832836179   -0.0563403555
C       -0.1295126217   -0.6262726352    0.2503441642
C        1.1760763606    0.1973808923    0.1183383190
C       -0.8808957271    0.6992613043    0.5649983016
C       -3.5661971578    0.1205098474    1.0204006620
N        2.1216989567   -0.2463180575   -0.8945883082
S       -2.5136942912    1.0194053306   -0.1712259504
H        0.6116134000    2.4072470772    0.4401359424
H        0.1247670736    1.6887080650   -1.1186640473
H       -0.4394899380   -1.0278989704   -0.7200305803
H       -0.1569479422   -1.4254725569    0.9961043967
H        1.7017187139    0.2321368715    1.0783568396
H       -0.9492413891    0.8592708521    1.6456699408
H       -4.6025650109    0.2405548483    0.6952357963
H       -3.4617207998    0.5392633452    2.0256076106
H       -3.3243752472   -0.9458798310    1.0386246394
H        1.6804436802   -0.2227765947   -1.8133186788
H        2.9205998657    0.3851104347   -0.9360678814
18   
torsion grid (-30,)
C        0.2594953309    1.4344552803   -0.0483305650
C       -0.0659065034   -0.7028805487    0.1677239217
C        1.1972979831    0.1921402377    0.1123171478
C       -0.8971525076    0.5678207641    0.5071082670
C       -3.6172643968    0.2210826442    1.0889779646
N        2.1994558667   -0.1626303706   -0.8816768178
S       -2.5340934582    0.8203068824   -0.2547006913
H        0.5015205144    2.3582194225    0.4856099982
H        0.1044056515    1.6649420223   -1.1089564767
H       -0.3222916618   -1.0808304640   -0.8274652155
H       -0.0776079160   -1.5327224681    0.8797448669
H        1.6873284423    0.2185171553    1.0913404030
H       -1.0046789057    0.6775076327    1.5903165700
H       -4.6486770261    0.3380395154    0.7470313513
H       -3.4781958876    0.8161910805    1.9960443557
H       -3.4380364099   -0.8351304504    1.3079614965
H        1.7870914764   -0.1325205914   -1.8135699620
H        2.9607071384    0.5150060966   -0.8758958035
18   
torsion grid (-15,)
C        0.2097515808    1.3803131986   -0.0307496147
C       -0.0056130595   -0.7761609759    0.0950944762
C        1.2091754961    0.1849962783    0.1079710608
C       -0.9103222090    0.4323059894    0.4666748340
C       -3.6450794458    0.3267158491    1.1365060227
N        2.2540001633   -0.0767691737   -0.8714031689
S       -2.5574092257    0.5981689691   -0.3068515814
H        0.3898825635    2.2970880849    0.5390077862
H        0.0631688584    1.6389617257   -1.0859327669
H       -0.2179264656   -1.1233618666   -0.9216676276
H        0.0070429846   -1.6367080572    0.7695448481
H        1.6718902986    0.1970374262    1.1005551359
H       -1.0402434088    0.4966015006    1.5504234054
H       -4.6745113637    0.4176944700    0.7807413004
H       -3.4720126205    1.0840078592    1.9061483082
H       -3.5078239218   -0.6719948417    1.5597711786
H        1.8635903525   -0.0322941978   -1.8121618081
H        2.9758371534    0.6409116026   -0.8200909782
18   
torsion grid (0,)
C        0.1536985557    1.3221192161    0.0031121572
C        0.0505016726   -0.8451955136    0.0382149559
C        1.2132610593    0.1764448008    0.1046878095
C       -0.9188215408    0.2946640326    0.4518212755
C       -3.6490634360    0.4347738040    1.1543269320
N        2.2801180582    0.0102456076   -0.8721817801
S       -2.5745581644    0.3609460020   -0.3224559734
H        0.2826271597    2.2233822315    0.6107173305
H       -0.0006939460    1.6143941452   -1.0417634255
H       -0.1325818103   -1.1575459891   -0.9958003365
H        0.0990401435   -1.7339501596    0.6729832507
H        1.6647916692    0.1694752823    1.1024748896
H       -1.0559706454    0.3180323764    1.5360525698
H       -4.6799092857    0.4813025651    0.7939889443
H       -3.4455265437    1.3293430374    1.7491526308
H       -3.5346639325   -0.4588588512    1.7737966635
H        1.8973460830    0.0773874519   -1.8147657917
H        2.9638026343    0.7605538012   -0.7807812912
18   
torsion grid (15,)
C        0.0940765722    1.2609196069    0.0587948233
C        0.1028721959   -0.9093851225    0.0036286670
C        1.2119965879    0.1682897418    0.1025208300
C       -0.9207675010    0.1583121566    0.4685186114
C       -3.6309940350    0.5409693589    1.1348436536
N        2.2738727349    0.0979114050   -0.8913736814
S       -2.5784061241    0.1243335778   -0.2997572497
H        0.1856259639    2.1375839381    0.7080911481
H       -0.0866103472    1.5928750045   -0.9694604095
H       -0.0695990553   -1.1898504115   -1.0416625734
H        0.2007385357   -1.8192386385    0.6013063295
H        1.6758003173    0.1424399509    1.0942576751
H       -1.0536863428    0.1397628403    1.5536549443
H       -4.6652196836    0.5408796422    0.7813478136
H       -3.3962108132    1.5331317992    1.5298640664
H       -3.5308413044   -0.2075340497    1.9257197514
H        1.8772938023    0.1921746087   -1.8259064829
H        2.9234562270    0.8739384318   -0.7708071060
18   
torsion grid (30,)
C        0.0320769102    1.1971912165    0.1348285400
C        0.1503617081   -0.9681233649   -0.0123164501
C        1.2044417721    0.1622632280    0.1011844415
C       -0.9165168015    0.0244325029    0.5140711210
C       -3.5913341870    0.6417986266    1.0815024547
N        2.2375108821    0.1870857860   -0.9245618797
S       -2.5713374895   -0.0965713680   -0.2419805158
H        0.1003523607    2.0418182205    0.8280591578
H       -0.1926022555    1.5712021798   -0.8697035495
H       -0.0301781013   -1.2208185601   -1.0635132903
H        0.3101902857   -1.8917061562    0.5494857336
H        1.6995876623    0.1202288157    1.0769650094
H       -1.0326807496   -0.0419241748    1.5998450772
H       -4.6294653535    0.6133041635    0.7410515169
H       -3.3126814055    1.6822932257    1.2700499734
H       -3.5088362759    0.0630371220    2.0058910923
H        1.8089439993    0.3065943453   -1.8419405210
H        2.8555647694    0.9854080318   -0.7853371006
18   
torsion grid (45,)
C       -0.0372013118    1.1290766769    0.2134218344
C        0.1880972009   -1.0204865073   -0.0277926795
C        1.1851513203    0.1589038269    0.1035416765
C       -0.9109151476   -0.1069595683    0.5708543035
C       -3.5269995429    0.7361410618    1.0146973185
N        2.1854154594    0.2800593182   -0.9469508799
S       -2.5704885268   -0.2935307721   -0.1513272211
H        0.0109263036    1.9480797128    0.9382406513
H       -0.3117450711    1.5283888686   -0.7688257820
H       -0.0112678704   -1.2389529591   -1.0831346087
H        0.4144800940   -1.9552102587    0.4906878325
H        1.7094887152    0.1028662714    1.0631865295
H       -0.9878220435   -0.2270510865    1.6561038564
H       -4.5723785887    0.7007917090    0.6982767537
H       -3.1888611515    1.7761147884    0.9970493003
H       -3.4539113048    0.3423189196    2.0326870194
H        1.7254251097    0.4141030187   -1.8469075758
H        2.7660040866    1.1028608203   -0.7902275181
18   
torsion grid (60,)
C       -0.0999526032    1.0628693089    0.3046789639
C        0.2180056315   -1.0634082859   -0.0320688390
C        1.1614557720    0.1582760294    0.1057167155
C       -0.8980812696   -0.2261748467    0.6449680879
C       -3.4498497804    0.8182495171    0.9297226950
N        2.1092858288    0.3690307964   -0.9781015392
S       -2.5702410755   -0.4605031147   -0.0317501823
H       -0.0586328290    1.8533966328    1.0606040871
H       -0.4330516325    1.4867728577   -0.6490202949
H       -0.0138293090   -1.2548564631   -1.0856704224
H        0.5131361527   -2.0015980131    0.4437545152
H        1.7279870602    0.0930279019    1.0403788166
H       -0.9237035726   -0.4049710755    1.7246531410
H       -4.4972677879    0.7999348473    0.6188088908
H       -3.0390714264    1.8118348902    0.7290250961
H       -3.3970320353    0.6093116837    2.0023513917
H        1.6065614730    0.5146258123   -1.8530039844
H        2.6576791337    1.2116953620   -0.8114663277
18   
torsion grid (75,)
C       -0.1415512833    1.0052618238    0.4012016655
C        0.2334789619   -1.0913278607   -0.0395218189
C        1.1399766194    0.1559676031    0.1085790282
C       -0.8759734510   -0.3219795212    0.7284949297
C       -3.3821495053    0.8830587732    0.8380955866
N        2.0299614307    0.4460614231   -1.0050220423
S       -2.5739003654   -0.5898943403    0.1230796396
H       -0.0940087756    1.7702182702    1.1824199412
H       -0.5303082730    1.4499320989   -0.5217387698
H       -0.0454271823   -1.2455018745   -1.0873530877
H        0.5856488357   -2.0365150301    0.3805452529
H        1.7494250038    0.0741306602    1.0144466395
H       -0.8312160305   -0.5615619955    1.7953853080
H       -4.4307639488    0.8578994678    0.5314877121
H       -2.9254090708    1.8019779784    0.4606967690
H       -3.3349601361    0.8723844214    1.9309692501
H        1.4845357140    0.6068943292   -1.8511229786
H        2.5560391873    1.3005076135   -0.8270622143
18   
torsion grid (90,)
C       -0.1598863765    0.9618069954    0.4907546574
C        0.2302202472   -1.1017100847   -0.0578802869
C        1.1236135206    0.1510628879    0.1122362582
C       -0.8470491022   -0.3903792224    0.8093894320
C       -3.3339706244    0.9238684579    0.7512438813
N        1.9661715760    0.5085758454   -1.0181299403
S       -2.5847592217   -0.6855044149    0.3215858311
H       -0.0991572707    1.7086522916    1.2882502463
H       -0.5926799364    1.4205576671   -0.4051467844
H       -0.1052206595   -1.2025466640   -1.0952528763
H        0.6183104219   -2.0618411411    0.2909309885
H        1.7670388264    0.0389106682    0.9909496937
H       -0.7147190570   -0.6829511927    1.8551815496
H       -4.3894315209    0.8631002572    0.4739439230
H       -2.8702708048    1.7395239398    0.1912393764
H       -3.2646882365    1.1283052428    1.8233691195
H        1.3880309699    0.6927461675   -1.8372318866
H        2.4818449791    1.3653361396   -0.8218523720
18   
torsion grid (105,)
C       -0.1526044647    0.9252077653    0.6050471608
C        0.2088668829   -1.1008606975   -0.0784581299
C        1.1112737499    0.1409397088    0.1180015544
C       -0.8165992123   -0.4458966278    0.8888379234
C       -3.2894285075    0.9473913986    0.6372796443
N        1.8952381835    0.5661341792   -1.0310128503
S       -2.5956907291   -0.7400734318    0.5400985778
H       -0.0547315294    1.6283160681    1.4377269188
H       -0.6245220817    1.4320824627   -0.2428975033
H       -0.1867345523   -1.1378628157   -1.0987193800
H        0.6141393783   -2.0806204642    0.1868270133
H        1.7982354014   -0.0182680139    0.9554485793
H       -0.6110654599   -0.7820228597    1.9089969168
H       -4.3681681169    0.8398890641    0.4968696057
H       -2.8992121376    1.5951588230   -0.1508833926
H       -3.1092471601    1.4036428051    1.6141176207
H        1.2771194764    0.7899746577   -1.8100062094
H        2.4165286096    1.4143818186   -0.8136932390
18   
torsion grid (120,)
C       -0.1281175541    0.8971866470    0.7311506152
C        0.1693460990   -1.0867618191   -0.0942018578
C        1.0948151084    0.1349777732    0.1195878703
C       -0.7866787090   -0.4866480984    0.9710347454
C       -3.2357068527    0.9401805234    0.5084168543
N        1.8106605475    0.6254790640   -1.0479442553
S       -2.5978787932   -0.7500495462    0.7803833505
H        0.0286835938    1.5434009460    1.6002026679
H       -0.6415690896    1.4648108969   -0.0510118491
H       -0.2916437133   -1.0592467827   -1.0871993054
H        0.5795992256   -2.0841917468    0.0834671905
H        1.8303129737   -0.0794229242    0.9016940766
H       -0.5224931967   -0.8546764222    1.9660031485
H       -4.3249889686    0.8475274999    0.5022458807
H       -2.9192337709    1.3552698238   -0.4517181671
H       -2.9484516211    1.6149253633    1.3182185185
H        1.1481978734    0.8961980705   -1.7737988009
H        2.3485445785    1.4585545722   -0.8129498722
18   
torsion grid (135,)
C       -0.0808006394    0.8858230200    0.8487405815
C        0.1041829816   -1.0557150188   -0.1040706234
C        1.0758531975    0.1293284864    0.1129155477
C       -0.7620545843   -0.4941753756    1.0524442945
C       -3.1819824570    0.9056260298    0.3967921317
N        1.7249003976    0.6681821634   -1.0725153047
S       -2.5863676428   -0.7038512230    1.0190227723
H        0.1515018543    1.4734487882    1.7421950486
H       -0.6249452893    1.5147260514    0.1375422314
H       -0.4199949592   -0.9602176037   -1.0613691048
H        0.4945664512   -2.0723895142   -0.0110326677
H        1.8560594790   -0.1474591684    0.8293779324
H       -0.4468984532   -0.9030188559    2.0162006308
H       -4.2729117482    0.8347578743    0.3954000757
H       -2.8497042469    1.1074606092   -0.6253580377
H       -2.8865108039    1.7266209165    1.0539995801
H        1.0225761155    0.9916942108   -1.7367201675
H        2.2959280784    1.4766724501   -0.8299841101
18   
torsion grid (150,)
C       -0.0207469756    0.8848307270    0.9551450945
C        0.0248962101   -1.0104351612   -0.1062701308
C        1.0530099950    0.1281369873    0.1030495229
C       -0.7438144863   -0.4788720481    1.1290905096
C       -3.1287204702    0.8485353331    0.2969675329
N        1.6405922935    0.7057696119   -1.0966722158
S       -2.5657063969   -0.6155674177    1.2289632063
H        0.2927661122    1.4109100353    1.8619678530
H       -0.5838349756    1.5737646647    0.3180102776
H       -0.5518871337   -0.8485172580   -1.0240212614
H        0.3792385315   -2.0441690387   -0.0884379434
H        1.8687023558   -0.2141380179    0.7482048255
H       -0.3902496350   -0.9442102016    2.0535068371
H       -4.2184005235    0.7749664062    0.2529760525
H       -2.7445157665    0.8581444404   -0.7273871665
H       -2.8610168175    1.7784560648    0.8038873666
H        0.9072417650    1.0889680392   -1.6921837393
H        2.2558436484    1.4809406738   -0.8532158105
18   
torsion grid (165,)
C        0.0508962927    0.8855100049    1.0512339796
C       -0.0532165113   -0.9564389968   -0.1027283610
C        1.0327591781    0.1305704051    0.0936049806
C       -0.7307361682   -0.4482022759    1.1953284511
C       -3.0882468838    0.7804276218    0.2043893554
N        1.5633790121    0.7435775522   -1.1156686938
S       -2.5440882953   -0.4943806888    1.3907678578
H        0.4456979234    1.3404457190    1.9646695219
H       -0.5163732680    1.6378455293    0.4938841485
H       -0.6647167814   -0.7360050261   -0.9848529431
H        0.2574863337   -2.0033749263   -0.1428277228
H        1.8744724213   -0.2749579257    0.6643410721
H       -0.3638346146   -0.9902493254    2.0718571268
H       -4.1784133071    0.7152696074    0.1646813375
H       -2.6971644350    0.5945327236   -0.8001975965
H       -2.8106352531    1.7854567780    0.5310803038
H        0.8089739848    1.1879351932   -1.6380190317
H        2.2271581023    1.4795518711   -0.8779629754
18   
torsion grid (180,)
C        0.1228156232    0.8901231602    1.1258775156
C       -0.1172951304   -0.8850166367   -0.1125606906
C        1.0277824592    0.1386990269    0.0936735625
C       -0.7229503917   -0.4057037108    1.2331532252
C       -3.0940160090    0.6853784564    0.1258292403
N        1.5412474083    0.7845758977   -1.1062325765
S       -2.5234364158   -0.3569862175    1.5097834069
H        0.5746364347    1.2751303379    2.0449142153
H       -0.4288469346    1.6985884410    0.6342179171
H       -0.7387561261   -0.5947290901   -0.9661752723
H        0.1402137285   -1.9426551160   -0.2087254157
H        1.8696199327   -0.3352620234    0.6087751331
H       -0.3590330016   -1.0286222993    2.0557924701
H       -4.1795269650    0.7586859197    0.2280541595
H       -2.8685704694    0.2349924032   -0.8443052743
H       -2.6742034655    1.6936284215    0.1741693155
H        0.7911251100    1.2946377328   -1.5717578159
H        2.2525919430    1.4720491371   -0.8609023049
