23   
torsion grid (-165,)
C       -6.1484833575    1.5149987454    2.4306847181
C       -5.0080171795    0.5636536211    2.0377147753
C       -5.5793907757   -0.6220183277    1.2435551621
C       -3.9201598038    1.3384963356    1.2631035358
C       -2.8995739858    0.4880350757    0.4972028221
C       -1.7842694951    1.3276042603   -0.1381859132
C       -0.7763046939    0.4863385324   -0.9293754465
H       -5.7746545635    2.3848294018    2.9836752749
H       -6.6637814217    1.8859674009    1.5364584078
H       -6.8911000434    1.0116906161    3.0600776409
H       -4.5544906638    0.1641505815    2.9556959949
H       -4.8243883922   -1.3873813690    1.0413679654
H       -5.9853138124   -0.2884520347    0.2799967528
H       -6.3951781025   -1.0998034223    1.7977809633
H       -3.3931676990    1.9992827520    1.9641493316
H       -4.4173544490    2.0039389276    0.5418190662
H       -3.4064334277   -0.0831549001   -0.2893964587
H       -2.4498901399   -0.2537183661    1.1730811399
H       -2.2323697309    2.0808780818   -0.7999791250
H       -1.2589839034    1.8867134880    0.6473659142
H        0.0103986046    1.1097724974   -1.3682422581
H       -0.2921960614   -0.2578091395   -0.2860867507
H       -1.2681931195   -0.0542244092   -1.7465284436
23   
torsion grid (-150,)
C       -6.0577738387    1.8208657919    2.2337671807
C       -4.9030899869    0.8237163065    2.0496449606
C       -5.4226994010   -0.4091912896    1.2908191708
C       -3.7051211041    1.5248713748    1.3552554147
C       -2.8017591255    0.6533756714    0.4735005365
C       -1.6277347652    1.4390116493   -0.1240693249
C       -0.7307717965    0.5831298363   -1.0255466685
H       -5.7285842080    2.7266559396    2.7567799284
H       -6.4561098975    2.1263811099    1.2587866433
H       -6.8801182139    1.3816742459    2.8100483429
H       -4.5747018454    0.4829491208    3.0406406527
H       -4.6627850252   -1.1904057874    1.1964914772
H       -5.7560950757   -0.1415226463    0.2806126618
H       -6.2813735864   -0.8436252537    1.8152175935
H       -3.0973232810    2.0274725215    2.1184125386
H       -4.1010310182    2.3295831603    0.7190409273
H       -3.3886579401    0.2150783603   -0.3419583157
H       -2.4060431605   -0.1915707587    1.0546885690
H       -2.0177888767    2.2906421986   -0.6974540068
H       -1.0274905945    1.8689444724    0.6886713183
H        0.0980427968    1.1680793070   -1.4391624698
H       -0.3004944374   -0.2583283618   -0.4699456454
H       -1.2979582521    0.1674434472   -1.8666349795
23   
torsion grid (-135,)
C       -6.0915729086    1.8352894647    2.0530893706
C       -4.9141202120    0.8475751125    2.0624819464
C       -5.3462494014   -0.4585943131    1.3739159118
C       -3.6462282766    1.5159328630    1.4456272394
C       -2.8273948908    0.6960774143    0.4390717667
C       -1.6237291218    1.4743368053   -0.1068721616
C       -0.8002471640    0.6707042599   -1.1197828613
H       -5.8324313341    2.7734634068    2.5575764458
H       -6.3766335391    2.0797218808    1.0224006016
H       -6.9718987935    1.4168110642    2.5545755144
H       -4.6902559857    0.5970140318    3.1072666544
H       -4.5579523785   -1.2170540916    1.3880883914
H       -5.6283802341   -0.2874777715    0.3285546007
H       -6.2201195034   -0.8803811546    1.8832489850
H       -2.9848878151    1.8444608049    2.2569464296
H       -3.9561176252    2.4374239589    0.9342343575
H       -3.4630280053    0.3891941169   -0.4000754026
H       -2.4676632968   -0.2308746561    0.9055116075
H       -1.9759158551    2.4031307862   -0.5752458387
H       -0.9801817569    1.7801778498    0.7286874737
H        0.0512622699    1.2494027861   -1.4942233898
H       -0.4067897752   -0.2478426159   -0.6688634106
H       -1.4106913500    0.3792989727   -1.9825368058
23   
torsion grid (-120,)
C       -6.0001472648    1.9072990024    1.7992874694
C       -4.8232476299    0.9398130800    2.0019638665
C       -5.1700022007   -0.4433210290    1.4275604704
C       -3.4973836126    1.5654220362    1.4591534973
C       -2.7638701913    0.8141724747    0.3390405682
C       -1.4971103954    1.5455781168   -0.1224053931
C       -0.7503780895    0.8051260147   -1.2377095360
H       -5.8036878122    2.8759420719    2.2724857015
H       -6.1739772378    2.0881039737    0.7307623766
H       -6.9276029097    1.5067364546    2.2248734201
H       -4.7019380102    0.8059940594    3.0844318377
H       -4.3740553772   -1.1739234614    1.6023368768
H       -5.3545639741   -0.4005659583    0.3485266175
H       -6.0801471520   -0.8285430868    1.9008914766
H       -2.7963015345    1.6934528614    2.2935009899
H       -3.7086570103    2.5807246401    1.1002177029
H       -3.4287786891    0.6783998897   -0.5236368909
H       -2.4892741699   -0.1935119450    0.6746552901
H       -1.7656206993    2.5530376529   -0.4671172798
H       -0.8272763650    1.6865195002    0.7363931401
H        0.1489893516    1.3483296891   -1.5479395552
H       -0.4401157048   -0.1938602270   -0.9096201889
H       -1.3857028949    0.6792222884   -2.1222399328
23   
torsion grid (-105,)
C       -5.9060285595    2.0003188680    1.7297565130
C       -4.7550803286    1.0445811020    2.0824816360
C       -5.0682874522   -0.3916551455    1.6392870111
C       -3.3911089331    1.5976830033    1.5711729146
C       -2.7931036248    0.9259961590    0.3270625577
C       -1.4759446677    1.5752237666   -0.1152958848
C       -0.8621596830    0.9049839915   -1.3497643321
H       -5.7305335278    2.9977876231    2.1471041921
H       -6.0107731229    2.1079266605    0.6422220376
H       -6.8633201315    1.6352276822    2.1196091316
H       -4.6966871450    1.0267274370    3.1788847602
H       -4.2768933975   -1.0895372197    1.9333208564
H       -5.1927304771   -0.4650505025    0.5535748932
H       -6.0001817919   -0.7353874156    2.1020428550
H       -2.6501353188    1.5106773287    2.3768945450
H       -3.4919548939    2.6731137461    1.3795634663
H       -3.5071882203    0.9687329820   -0.5069701303
H       -2.6172003822   -0.1381813117    0.5235603753
H       -1.6480272093    2.6395839268   -0.3232719700
H       -0.7587471459    1.5397560888    0.7157337579
H        0.0770643707    1.3866918126   -1.6430225969
H       -0.6488773026   -0.1534279724   -1.1594706559
H       -1.5444367053    0.9550581346   -2.2064231060
23   
torsion grid (-90,)
C       -5.7892193261    2.0610181591    1.6404509280
C       -4.7394493087    1.0946925471    2.2115314707
C       -5.0807454686   -0.3669223987    1.8916228046
C       -3.3045996781    1.5062972888    1.7946717114
C       -2.7843773158    0.9038088634    0.4823344321
C       -1.4041989610    1.4446655684    0.0889868201
C       -0.8636839940    0.8259294579   -1.2051139834
H       -5.5993738533    3.0875888460    1.9721119591
H       -5.7794437662    2.0578200011    0.5430436701
H       -6.8004771900    1.7848769291    1.9606801276
H       -4.7859847917    1.2004164347    3.3042492164
H       -4.3326849839   -1.0539470778    2.3036048537
H       -5.1373947474   -0.5427437607    0.8120230866
H       -6.0522458942   -0.6362387048    2.3208944946
H       -2.6086240007    1.2112860127    2.5920760228
H       -3.2503981237    2.6010358730    1.7401829053
H       -3.4918272790    1.1066004442   -0.3340328418
H       -2.7270148337   -0.1873976539    0.5721162749
H       -1.4607067467    2.5356335616   -0.0216235958
H       -0.6965165040    1.2580496971    0.9079247320
H        0.1214594510    1.2300797234   -1.4627297244
H       -0.7637699211   -0.2617744618   -1.1111076991
H       -1.5361948087    1.0236967710   -2.0480544649
23   
torsion grid (-75,)
C       -5.7596274855    1.9246188552    1.4102010291
C       -4.7362999773    1.0558435919    2.1580663876
C       -5.0321484133   -0.4395531812    1.9740156324
C       -3.2828735620    1.4296549886    1.7942244599
C       -2.7931819918    0.9607632235    0.4172887377
C       -1.3800451604    1.4590014856    0.0897024463
C       -0.8727124718    0.9724613426   -1.2724751908
H       -5.5830120847    2.9902994278    1.5943364969
H       -5.7120785393    1.7602536167    0.3273342637
H       -6.7816175019    1.6932718678    1.7313030735
H       -4.8514743190    1.2801048521    3.2278476502
H       -4.2864121552   -1.0602635272    2.4844610181
H       -5.0341451302   -0.7222203905    0.9157005369
H       -6.0162315540   -0.6939063568    2.3833665550
H       -2.6125849675    1.0088394056    2.5566189235
H       -3.1732922177    2.5202477816    1.8640616322
H       -3.4817374176    1.3041779924   -0.3663484357
H       -2.8021206887   -0.1351764336    0.3735029496
H       -1.3685677696    2.5567053398    0.1145933334
H       -0.6892151795    1.1293803292    0.8772696565
H        0.1369029732    1.3431764043   -1.4809288872
H       -0.8411406501   -0.1226195173   -1.3139288606
H       -1.5274740911    1.3144271032   -2.0826033409
23   
torsion grid (-60,)
C       -5.7243738257    1.8697823039    1.1359148201
C       -4.7730267044    1.1132813433    2.0756469850
C       -5.0959381191   -0.3890190743    2.0867000120
C       -3.2878919272    1.3914263697    1.7623059992
C       -2.8104394543    1.0093795569    0.3548463431
C       -1.3176712186    1.2896312781    0.1403803675
C       -0.8336090703    0.9184646695   -1.2658436286
H       -5.4897190549    2.9402925410    1.1072194078
H       -5.6653869318    1.4870351282    0.1112089848
H       -6.7641089740    1.7635827810    1.4652937655
H       -4.9483989098    1.4911841376    3.0925430853
H       -4.4259568449   -0.9354466607    2.7605693291
H       -4.9973027860   -0.8288134736    1.0880690013
H       -6.1244716424   -0.5655944552    2.4211584645
H       -2.6709564573    0.8616985448    2.5012331950
H       -3.0939474286    2.4618431625    1.9177308339
H       -3.3862739477    1.5612862772   -0.3985745410
H       -3.0016269533   -0.0551491071    0.1683210894
H       -1.1188933404    2.3533040120    0.3276372380
H       -0.7344783833    0.7347704976    0.8872770030
H        0.2344232859    1.1277016302   -1.3912654131
H       -0.9907796153   -0.1473844759   -1.4688310011
H       -1.3765304210    1.4837953719   -2.0323670832
23   
torsion grid (-45,)
C       -5.7159193350    1.7118148861    1.0103919632
C       -4.7994591001    1.1012265099    2.0816258270
C       -5.1076408423   -0.3959873395    2.2516533494
C       -3.2985430988    1.3387301447    1.7962608715
C       -2.8393730057    1.0933450874    0.3524403790
C       -1.3210238158    1.2297921924    0.1839338685
C       -0.8562117968    1.0168868298   -1.2611534097
H       -5.4892898520    2.7710315541    0.8400867921
H       -5.6141464874    1.1902397730    0.0530135395
H       -6.7663434663    1.6404318596    1.3140507156
H       -5.0250231898    1.5926628938    3.0373982074
H       -4.5159661164   -0.8341110657    3.0633771398
H       -4.8824499473   -0.9545830555    1.3354775205
H       -6.1665671223   -0.5586292741    2.4828227123
H       -2.7071789264    0.7119141310    2.4768126201
H       -3.0527170555    2.3782096404    2.0549554120
H       -3.3364797860    1.8020044825   -0.3207003154
H       -3.1448387337    0.0912380942    0.0218298495
H       -1.0075094631    2.2248664502    0.5270496901
H       -0.8175417986    0.5086108672    0.8412270968
H        0.2307883557    1.1182743720   -1.3525201571
H       -1.1293808390    0.0177724158   -1.6204605688
H       -1.3172486633    1.7475612744   -1.9360393836
23   
torsion grid (-30,)
C       -5.6397607982    1.5721768350    0.9366065844
C       -4.7361390765    1.0936915110    2.0838647030
C       -5.0771333692   -0.3675142746    2.4269336422
C       -3.2186878539    1.2433414492    1.7885495372
C       -2.7925458613    1.1332978425    0.3182839294
C       -1.2711232528    1.2083394617    0.1396021626
C       -0.8350717411    1.1250054624   -1.3275571599
H       -5.4255112261    2.6082395375    0.6498733474
H       -5.5203721935    0.9471263168    0.0459192152
H       -6.6927946347    1.5234585369    1.2356556092
H       -4.9627401704    1.7013794879    2.9688795749
H       -4.5202242881   -0.7106435208    3.3060140608
H       -4.8248686562   -1.0333471334    1.5921075064
H       -6.1458871834   -0.4913273075    2.6365496434
H       -2.6664048251    0.5039559894    2.3820968828
H       -2.8838352615    2.2246504899    2.1523113414
H       -3.2599349505    1.9342492293   -0.2662815557
H       -3.1537746070    0.1890392029   -0.1126698418
H       -0.9015337033    2.1444367483    0.5793166954
H       -0.7987214305    0.3972486052    0.7093349482
H        0.2545517702    1.1808717606   -1.4264750820
H       -1.1636304229    0.1840240375   -1.7841939387
H       -1.2657308191    1.9445533523   -1.9147442041
23   
torsion grid (-15,)
C       -4.5692231788    0.6698464939    2.8261607101
C       -5.0978988135    0.5253526174    1.3897180151
C       -6.1911562220    1.5789471121    1.1404577385
C       -3.9994673836    0.6103059109    0.2841081023
C       -2.6292429725    1.1671206495    0.6953330482
C       -1.6469525734    1.2304887826   -0.4808538668
C       -0.2699407216    1.7738993455   -0.0828221013
H       -3.8121989777   -0.0844884432    3.0659568007
H       -4.1243342389    1.6560091765    2.9945583280
H       -5.3894042864    0.5513463849    3.5430791269
H       -5.5715611477   -0.4610603402    1.3134481986
H       -6.6550858468    1.4466132636    0.1565805568
H       -5.7683889125    2.5911546872    1.1755435696
H       -6.9833681681    1.5234781875    1.8961340816
H       -4.3824338457    1.2086394007   -0.5517914773
H       -3.8341892353   -0.3937943021   -0.1282805237
H       -2.1942575241    0.5488850427    1.4895888952
H       -2.7399095758    2.1748074938    1.1180392223
H       -1.5342964636    0.2269119263   -0.9124700995
H       -2.0728691877    1.8572525676   -1.2755477298
H        0.4111322572    1.8086368608   -0.9402029292
H       -0.3482938470    2.7895858598    0.3222951323
H        0.1947351597    1.1467327114    0.6870081322
23   
torsion grid (0,)
C       -4.6445406827    0.8033051458    2.9057364413
C       -5.1489202134    0.5321611088    1.4788117265
C       -6.3702186132    1.4136455459    1.1745178783
C       -4.0701066228    0.6837145214    0.3577398128
C       -2.6494783641    1.0786259354    0.7850977026
C       -1.7004818981    1.2285776795   -0.4105041805
C       -0.2765084462    1.6200529582    0.0003913639
H       -3.8039545849    0.1573240898    3.1767061601
H       -4.3224909484    1.8430865689    3.0318717358
H       -5.4477545886    0.6197023211    3.6282207182
H       -5.4918002807   -0.5103356902    1.4646864966
H       -6.7862187045    1.1892445550    0.1857583973
H       -6.0929560731    2.4754349374    1.1856020608
H       -7.1654175937    1.2681241311    1.9149190051
H       -4.4185579576    1.4345203481   -0.3633080562
H       -4.0094076527   -0.2539675290   -0.2085812706
H       -2.2371836458    0.3294536568    1.4728909137
H       -2.6719711420    2.0242890751    1.3410886911
H       -1.6737538365    0.2854486935   -0.9724793591
H       -2.1032754681    1.9822009597   -1.1002452907
H        0.3791804346    1.7218854303   -0.8713150896
H       -0.2690693209    2.5761266657    0.5368189594
H        0.1645543606    0.8664720516    0.6633025152
23   
torsion grid (15,)
C       -4.6585687238    0.9453781785    2.9237360403
C       -5.1313733306    0.5589621342    1.5135854124
C       -6.4648402461    1.2390870959    1.1751624583
C       -4.0888266713    0.8066863300    0.3827387000
C       -2.6343255159    1.0552353006    0.8037842895
C       -1.7103282217    1.2988261800   -0.3959803699
C       -0.2554575245    1.5586547689    0.0111801691
H       -3.7474809866    0.4133739142    3.2115956728
H       -4.4591840564    2.0209168062    3.0052427852
H       -5.4327940001    0.7005806539    3.6597336775
H       -5.3197874276   -0.5231441399    1.5467460478
H       -6.8223453389    0.9396517300    0.1832381973
H       -6.3527701053    2.3306414468    1.1725529071
H       -7.2424127261    0.9836202056    1.9042302208
H       -4.4097074676    1.6849374424   -0.1951627403
H       -4.1220952828   -0.0325504843   -0.3228062515
H       -2.2520105773    0.1996867953    1.3772272416
H       -2.5827760731    1.9205822348    1.4751594144
H       -1.7536188284    0.4322559677   -1.0690352848
H       -2.0871457090    2.1526298654   -0.9748543507
H        0.3815916676    1.7306872423   -0.8633132620
H       -0.1779916059    2.4398631936    0.6587797447
H        0.1584918234    0.7065347701    0.5629122885
23   
torsion grid (30,)
C       -4.7206925221    1.0090110192    2.9243845722
C       -5.1147309029    0.5240722435    1.5214421675
C       -6.5197035652    1.0064115654    1.1380149706
C       -4.0963813565    0.8917997319    0.4131474279
C       -2.6264506596    1.0043084418    0.8352580036
C       -1.6947519418    1.3078639425   -0.3447494007
C       -0.2258718380    1.4457779021    0.0712278398
H       -3.7709963128    0.5789905084    3.2542878653
H       -4.6250897343    2.1018425337    2.9602967172
H       -5.4867231376    0.7230975687    3.6541479533
H       -5.1487428254   -0.5739863098    1.5761039557
H       -6.8023885906    0.6522111809    0.1399145453
H       -6.5635495397    2.1026401318    1.1262681476
H       -7.2740914994    0.6486783598    1.8479347378
H       -4.3889350993    1.8615535004   -0.0164354334
H       -4.1903891744    0.1671926584   -0.4056793709
H       -2.2994023582    0.0719182668    1.3173168538
H       -2.5158086425    1.7929978157    1.5886059696
H       -1.7900688179    0.5128905041   -1.0961528385
H       -2.0248382133    2.2326341606   -0.8366516145
H        0.4163631927    1.6641833321   -0.7890100003
H       -0.0958637616    2.2556706083    0.7986208907
H        0.1412562719    0.5231300402    0.5358060433
23   
torsion grid (45,)
C       -4.7076170877    1.0925428453    2.8680316724
C       -5.0258638807    0.5309059099    1.4747229594
C       -6.4725835122    0.8436894020    1.0695641457
C       -4.0470747104    1.0143920348    0.3852412650
C       -2.5597828454    0.9775815798    0.7559929554
C       -1.6437665400    1.3325886109   -0.4218712725
C       -0.1567121161    1.3230505542   -0.0499797506
H       -3.7293302211    0.7626863560    3.2289320094
H       -4.7102958033    2.1903459606    2.8615039962
H       -5.4577936948    0.7651614013    3.5967664234
H       -4.9269785093   -0.5630067050    1.5393630599
H       -6.7048172093    0.4390534133    0.0777089423
H       -6.6409073534    1.9272673844    1.0343947271
H       -7.1880679920    0.4181468146    1.7822052032
H       -4.3088324726    2.0481411644    0.1136569253
H       -4.2115075306    0.4163285290   -0.5209608100
H       -2.2946809645   -0.0223325567    1.1290634921
H       -2.3637445058    1.6733028492    1.5804841395
H       -1.8207996625    0.6267601660   -1.2441187995
H       -1.9190110260    2.3235994162   -0.8068982038
H        0.4736988527    1.5790017740   -0.9086060997
H        0.0557701327    2.0454210651    0.7468536350
H        0.1540167972    0.3349342158    0.3091949516
23   
torsion grid (60,)
C       -4.7816241308    1.3089887372    2.7858869682
C       -4.9704061703    0.6310644398    1.4206653787
C       -6.4216726457    0.7794300288    0.9412260598
C       -3.9957206158    1.1686670054    0.3572734093
C       -2.5080800840    0.9868425057    0.6813302292
C       -1.5871266689    1.4146565205   -0.4680952918
C       -0.0993958664    1.2469112927   -0.1392849364
H       -3.7855034893    1.1278814631    3.2006628919
H       -4.9176709271    2.3948982571    2.7022062599
H       -5.5141366936    0.9378869960    3.5115333073
H       -4.7655964777   -0.4421864960    1.5469712895
H       -6.5791393349    0.2733542729   -0.0180299243
H       -6.6811680365    1.8369096761    0.8063274572
H       -7.1261208424    0.3545974785    1.6652382452
H       -4.2021374872    2.2366384813    0.1938489722
H       -4.2122512580    0.6694823404   -0.5971847448
H       -2.3146418928   -0.0673755397    0.9260629626
H       -2.2451144872    1.5616898014    1.5778086204
H       -1.8325405135    0.8310702297   -1.3652586119
H       -1.7904029236    2.4635223752   -0.7220725113
H        0.5345731570    1.5566472981   -0.9773144618
H        0.1826938449    1.8487507590    0.7325568365
H        0.1386010396    0.2016829671    0.0905044617
23   
torsion grid (75,)
C       -4.8138200749    1.5281999288    2.7389577055
C       -4.8943501738    0.7154217847    1.4376494199
C       -6.3387176926    0.6952219892    0.9151891055
C       -3.9332235418    1.2599327902    0.3634505381
C       -2.4560472755    0.9223457274    0.5996820345
C       -1.5276758574    1.4744626874   -0.4887992199
C       -0.0539350091    1.1227494252   -0.2561878405
H       -3.7982041438    1.5489580612    3.1476112978
H       -5.1248769836    2.5655727785    2.5635172713
H       -5.4715554974    1.1093266798    3.5088699357
H       -4.6011263111   -0.3204261916    1.6600009646
H       -6.4313121495    0.0673567832    0.0218643167
H       -6.6696577392    1.7065077061    0.6473635865
H       -7.0316681426    0.3092123657    1.6715409206
H       -4.0584054833    2.3494543964    0.2880361983
H       -4.2261393761    0.8533470988   -0.6142151452
H       -2.3420608913   -0.1693502702    0.6527424920
H       -2.1311909432    1.3099623294    1.5741286231
H       -1.8468996273    1.0887498164   -1.4661705669
H       -1.6405420561    2.5654834889   -0.5403741069
H        0.5857532214    1.5296801512   -1.0469692617
H        0.3015708897    1.5241752990    0.7000464632
H        0.0938785116    0.0366824837   -0.2333612925
23   
torsion grid (90,)
C       -5.0096884368    1.5551856426    2.8843538504
C       -4.9049060443    0.6868176771    1.6212083637
C       -6.3030170392    0.4340524517    1.0370960816
C       -3.9697193905    1.3344468274    0.5752229746
C       -2.5015529514    0.9136922855    0.7152892835
C       -1.5688971670    1.6092424302   -0.2829546529
C       -0.1081634639    1.1630172885   -0.1523576166
H       -4.0220142482    1.7766982491    3.3048964790
H       -5.4955081013    2.5108869038    2.6529877520
H       -5.5997137920    1.0599205611    3.6638561805
H       -4.4786142047   -0.2850870599    1.9048544306
H       -6.2584850156   -0.2425426720    0.1761884863
H       -6.7586308499    1.3732995908    0.6992550204
H       -6.9732968701   -0.0111343599    1.7815150417
H       -4.0533694892    2.4278717674    0.6364279816
H       -4.3071196854    1.0627216235   -0.4339503180
H       -2.4286815510   -0.1744825365    0.5825914532
H       -2.1519444982    1.1189340530    1.7369276428
H       -1.9223408104    1.4132943258   -1.3041196735
H       -1.6345548585    2.6961435042   -0.1414880591
H        0.5347300949    1.6760188222   -0.8759919364
H        0.2815607961    1.3761049063    0.8499446031
H       -0.0079369699    0.0846936918   -0.3228544614
23   
torsion grid (105,)
C       -5.1888122987    1.6695728499    2.8860825381
C       -4.9308817319    0.7549466248    1.6792610278
C       -6.2590767365    0.3385923571    1.0296128256
C       -3.9815746667    1.4289601866    0.6547246914
C       -2.5568602296    0.8616082280    0.6748091227
C       -1.6066586518    1.5556602977   -0.3074897327
C       -0.1894662144    0.9715022062   -0.2875190248
H       -4.2493185401    1.9827899286    3.3565593146
H       -5.7242602490    2.5752961105    2.5762763445
H       -5.7939722289    1.1671487124    3.6494373363
H       -4.4418324819   -0.1573568537    2.0461438509
H       -6.0938087006   -0.3593475538    0.2008751798
H       -6.7868309219    1.2128182415    0.6284543212
H       -6.9233943330   -0.1486134936    1.7528255926
H       -3.9470555888    2.5109784007    0.8362744024
H       -4.3856501428    1.3092569635   -0.3589176933
H       -2.5959235332   -0.2123196552    0.4454296443
H       -2.1461930874    0.9396868397    1.6916921642
H       -2.0196733925    1.4818116665   -1.3223940398
H       -1.5649673145    2.6276552498   -0.0732120266
H        0.4669502880    1.4856424241   -0.9980830357
H        0.2607012895    1.0618227010    0.7080072124
H       -0.1973741860   -0.0927309682   -0.5506553365
23   
torsion grid (120,)
C       -5.1978795090    1.8886145896    2.7853114535
C       -4.8051192059    0.9137141515    1.6659503587
C       -6.0491430221    0.3444973017    0.9687598272
C       -3.8290764811    1.5678267940    0.6509141910
C       -2.4801010323    0.8460032288    0.5463411097
C       -1.5198448164    1.4842932805   -0.4633957054
C       -0.1736561786    0.7567794377   -0.5552698428
H       -4.3123600503    2.2657886919    3.3097327895
H       -5.7372980888    2.7529733137    2.3783620237
H       -5.8477643913    1.4078650878    3.5257088794
H       -4.2811467520    0.0713190892    2.1375682438
H       -5.7714136700   -0.3717694233    0.1868176350
H       -6.6309636480    1.1451890832    0.4955230125
H       -6.7060944214   -0.1712752092    1.6786677277
H       -3.6478774135    2.6138040658    0.9298229765
H       -4.2931573423    1.6016293602   -0.3431707809
H       -2.6514396511   -0.2041411985    0.2703109285
H       -2.0042570677    0.8252226984    1.5369188790
H       -1.9957764007    1.5019012514   -1.4528817343
H       -1.3516180212    2.5339369007   -0.1878797909
H        0.4912669234    1.2328586300   -1.2841937170
H        0.3403811497    0.7538458971    0.4130441174
H       -0.3093896118   -0.2875820796   -0.8598528035
23   
torsion grid (135,)
C       -5.4109767946    1.8221350805    2.6566676254
C       -4.7914713539    0.8807901694    1.6145935659
C       -5.8690273065    0.1651001380    0.7883395048
C       -3.7734704495    1.6139531023    0.7056720358
C       -2.4717807130    0.8323172918    0.4904723493
C       -1.4886746983    1.5281202029   -0.4576055374
C       -0.1834018999    0.7472638868   -0.6485128815
H       -4.6381751548    2.2694875397    3.2917284773
H       -5.9583702108    2.6402737449    2.1715472400
H       -6.1157334132    1.2904018891    3.3065196010
H       -4.2396214895    0.1096283331    2.1701774772
H       -5.4192593220   -0.5035784547    0.0452392729
H       -6.4917710967    0.8904001190    0.2501199582
H       -6.5290901373   -0.4364009858    1.4237426558
H       -3.5202556201    2.5876369170    1.1452087881
H       -4.2356697333    1.8359861283   -0.2652795731
H       -2.7045524174   -0.1681655286    0.0985558448
H       -1.9868708735    0.6715112692    1.4632330659
H       -1.9720372061    1.6787969791   -1.4319740745
H       -1.2631058965    2.5311123693   -0.0713475006
H        0.4993565443    1.2664961244   -1.3299489506
H        0.3380762184    0.6106493034    0.3061015692
H       -0.3764385336   -0.2485712157   -1.0643811617
23   
torsion grid (150,)
C       -5.5186112610    1.8598799551    2.6107876094
C       -4.7513631079    0.8967419487    1.6943611172
C       -5.7100178425    0.0592718572    0.8362122585
C       -3.7174707002    1.6446477922    0.8253958549
C       -2.4853105811    0.8057874945    0.4647680051
C       -1.4934826406    1.5398900646   -0.4451230052
C       -0.2528509634    0.7039651225   -0.7797179735
H       -4.8367690538    2.3942351301    3.2815567267
H       -6.0643550058    2.6096474230    2.0238477070
H       -6.2502305126    1.3259209613    3.2281830889
H       -4.1957992165    0.2053461862    2.3442246099
H       -5.1655331932   -0.6228232569    0.1739751958
H       -6.3331079063    0.7077866946    0.2078034445
H       -6.3794131553   -0.5449974966    1.4588516468
H       -3.3754748637    2.5409310706    1.3601602310
H       -4.2040051184    2.0077990785   -0.0904720969
H       -2.7981374930   -0.1267954453   -0.0248852739
H       -1.9749405604    0.5062600840    1.3904721675
H       -2.0019876481    1.8297780991   -1.3741158665
H       -1.1851041482    2.4765675139    0.0381941367
H        0.4367850942    1.2517774550   -1.4312006579
H        0.2946930561    0.4287107419    0.1293106338
H       -0.5291725408   -0.2248847598   -1.2923461631
23   
torsion grid (165,)
C       -5.6063398262    2.0061621082    2.5290161716
C       -4.7155080829    0.9972301830    1.7898553374
C       -5.5656455510    0.0441157213    0.9369907977
C       -3.6441935397    1.7233590533    0.9549210748
C       -2.4925332723    0.8333974293    0.4719523239
C       -1.4252076025    1.6027807028   -0.3159078360
C       -0.2734060369    0.7115907000   -0.7943018590
H       -5.0150506755    2.6494732672    3.1901997677
H       -6.1350629931    2.6544832972    1.8188748244
H       -6.3616948591    1.4986863637    3.1398031968
H       -4.1935742868    0.3964125666    2.5489161038
H       -4.9549043982   -0.7156938686    0.4392661681
H       -6.1073769458    0.5993483145    0.1608119379
H       -6.3079363483   -0.4784028161    1.5508364972
H       -3.2207684921    2.5383498932    1.5578467940
H       -4.1265954933    2.2044976396    0.0918771460
H       -2.8799483897    0.0211430882   -0.1563398303
H       -2.0228879999    0.3501904985    1.3401754597
H       -1.8955456471    2.0896073856   -1.1805118935
H       -1.0269024178    2.4123510889    0.3100397379
H        0.4734569471    1.2860632259   -1.3531451150
H        0.2360828949    0.2365929999    0.0522912602
H       -0.6385968445   -0.0875248700   -1.4500095650
23   
torsion grid (180,)
C       -5.6727941138    2.0816331632    2.4500871921
C       -4.6834292393    1.0548504676    1.8795376827
C       -5.4337336609   -0.0118543850    1.0675776903
C       -3.5944303650    1.7649888159    1.0545924383
C       -2.5395635148    0.8456334713    0.4275596435
C       -1.4009728298    1.6167212581   -0.2516933037
C       -0.3566992035    0.6993741305   -0.8979111509
H       -5.1589902365    2.8444341091    3.0463314616
H       -6.2078669193    2.5955163060    1.6419073354
H       -6.4207177889    1.6015523811    3.0911929323
H       -4.1898037548    0.5515667083    2.7235729642
H       -4.7741391531   -0.8222335864    0.7431882082
H       -5.8874513471    0.4303445240    0.1712953965
H       -6.2393282107   -0.4589196741    1.6608859301
H       -3.0900274410    2.4964944330    1.7006735375
H       -4.0791377627    2.3486516371    0.2581019476
H       -3.0092162461    0.1845312435   -0.3109065041
H       -2.1188361216    0.1889877697    1.2026227051
H       -1.8226368898    2.2858887961   -1.0135512326
H       -0.9121620487    2.2658902595    0.4867606076
H        0.4453858566    1.2753931667   -1.3722687111
H        0.1026066793    0.0383665554   -0.1535633261
H       -0.8111431869    0.0642402453   -1.6673170004
