18   
torsion grid (-165,)
C       -3.0371755538   -2.9183192565   -1.3037734566
C       -1.6276055660   -2.4658549022   -1.7289632219
C       -0.7961587248   -3.6687388334   -2.2218142871
C       -0.9214867968   -1.7150019458   -0.6100290072
C       -0.6088891788   -2.4768703621    0.6568554090
C       -0.5858399278   -0.4244762751   -0.7488147308
H       -3.6418842327   -2.0682677777   -0.9713036218
H       -2.9939031324   -3.6460618254   -0.4866483780
H       -3.5553946213   -3.3981319813   -2.1419608264
H       -1.7363586904   -1.7643306011   -2.5641587280
H        0.2693326993   -3.4226494277   -2.2757819703
H       -1.1327517661   -3.9963779220   -3.2108550019
H       -0.8969379225   -4.5222783971   -1.5414888600
H        0.0148869680   -3.3543694451    0.4500652061
H       -0.0789719673   -1.8474289794    1.3766822984
H       -1.5223153916   -2.8443523180    1.1386598149
H       -0.0791996500    0.1236497886    0.0428783861
H       -0.8080034892    0.1265325889   -1.6605512374
18   
torsion grid (-150,)
C       -2.8379964728   -3.0914675482   -0.8522436651
C       -1.4325197258   -2.6709177992   -1.3206990771
C       -0.6165195329   -3.9035701380   -1.7844398410
C       -0.6993180326   -1.8932975545   -0.2380337564
C       -0.4219283726   -2.6059427163    1.0652465200
C       -0.3096700216   -0.6263587837   -0.4385100196
H       -3.4287635583   -2.2232165022   -0.5418549171
H       -2.7848744915   -3.7875709921   -0.0088372722
H       -3.3769621537   -3.5983559448   -1.6609825999
H       -1.5481869820   -1.9941135968   -2.1743613576
H        0.4561746951   -3.7635736756   -1.6188130490
H       -0.7851659716   -4.1147964068   -2.8447357463
H       -0.9054268573   -4.7989894024   -1.2218141156
H        0.1086909003   -3.5508320844    0.8984160582
H        0.1848574014   -1.9891149309    1.7334830459
H       -1.3522657866   -2.8542789342    1.5890969115
H        0.2227190568   -0.0638756366    0.3257566399
H       -0.5111406534   -0.1100747418   -1.3750279668
18   
torsion grid (-135,)
C       -2.8288604543   -3.1270993886   -0.8821506104
C       -1.4590927118   -2.6846415499   -1.4293745230
C       -0.6507385872   -3.9031070495   -1.9591650484
C       -0.6715623484   -1.9031700696   -0.3889683717
C       -0.3717959245   -2.5968513412    0.9195690111
C       -0.2566265954   -0.6511753971   -0.6287336410
H       -3.4063228271   -2.2707508361   -0.5176997717
H       -2.7178967671   -3.8397839844   -0.0582574458
H       -3.4124513789   -3.6218725549   -1.6667809727
H       -1.6399625875   -2.0018017676   -2.2661615572
H        0.3911459645   -3.8767058061   -1.6267804894
H       -0.6566853927   -3.9388180345   -3.0524071867
H       -1.0726276416   -4.8477418919   -1.5980257763
H        0.0813112885   -3.5819625352    0.7563661748
H        0.3108360924   -2.0058844317    1.5360276439
H       -1.2881869178   -2.7633165532    1.4977595983
H        0.3187385920   -0.0886717840    0.1037188023
H       -0.4797530151   -0.1477607397   -1.5672858628
18   
torsion grid (-120,)
C       -2.8415249449   -3.1621638807   -0.7901599500
C       -1.4808927545   -2.6824080919   -1.3284915441
C       -0.6392577640   -3.8734621201   -1.8739035880
C       -0.7093199977   -1.8801226918   -0.2927813476
C       -0.4561824654   -2.5349477179    1.0452587394
C       -0.2689305902   -0.6426188998   -0.5611130404
H       -3.4321105041   -2.3260015348   -0.4003157455
H       -2.7196085053   -3.8965965909    0.0133818911
H       -3.4174368514   -3.6421487431   -1.5889838722
H       -1.6866262252   -2.0030960002   -2.1624256912
H        0.3112128363   -3.9802933852   -1.3431358288
H       -0.3971719004   -3.7297540861   -2.9310944816
H       -1.1755421656   -4.8240244147   -1.7841889562
H       -0.0247329885   -3.5362053857    0.9284398987
H        0.2262594654   -1.9392559541    1.6573384383
H       -1.3903531212   -2.6585425270    1.6055818451
H        0.2987372329   -0.0665154899    0.1667369668
H       -0.4623503264   -0.1655708649   -1.5197997334
18   
torsion grid (-105,)
C       -2.6593475969   -3.4013938977   -1.0362433441
C       -1.3648146606   -2.8011576921   -1.6147892365
C       -0.4501012075   -3.9036745794   -2.2151176322
C       -0.6166971233   -1.9427124533   -0.6078520902
C       -0.3045260924   -2.5578711223    0.7365176316
C       -0.2464999832   -0.6892334518   -0.9066208223
H       -3.2945482305   -2.6258504329   -0.5945084888
H       -2.4492829998   -4.1486224095   -0.2627882890
H       -3.2304932608   -3.8987395241   -1.8273923904
H       -1.6651181718   -2.1376817351   -2.4333326287
H        0.4068735291   -4.1208086479   -1.5703057462
H       -0.0328083132   -3.5758589863   -3.1724431937
H       -0.9953539779   -4.8368688031   -2.3892554080
H        0.1826012741   -3.5344396190    0.6315771875
H        0.3514805975   -1.9122856494    1.3264769052
H       -1.2214955185   -2.7248046358    1.3138494607
H        0.3062625790   -0.0717657714   -0.2016060959
H       -0.4849605355   -0.2400962629   -1.8686671080
18   
torsion grid (-90,)
C       -2.7064852565   -3.3669399515   -0.9355104135
C       -1.4102145795   -2.7821928125   -1.5254183736
C       -0.5175455886   -3.8931922250   -2.1273037754
C       -0.6412626033   -1.9265615676   -0.5315639521
C       -0.3372637650   -2.5266735455    0.8215457397
C       -0.2468178906   -0.6851786498   -0.8493496782
H       -3.3261958432   -2.5846481395   -0.4838871495
H       -2.4993214473   -4.1200958009   -0.1668663060
H       -3.2928252233   -3.8529435515   -1.7224557202
H       -1.7084102421   -2.1224427228   -2.3486238832
H        0.1788647993   -4.3023299053   -1.3883003185
H        0.0995775948   -3.4878343159   -2.9358408263
H       -1.1157825549   -4.7145051755   -2.5352272282
H        0.1461524733   -3.5064265439    0.7321504461
H        0.3199917565   -1.8764453843    1.4049540883
H       -1.2569459812   -2.6813616380    1.3979613618
H        0.3202836192   -0.0687605054   -0.1549079487
H       -0.4789601850   -0.2452104823   -1.8172104322
18   
torsion grid (-75,)
C       -2.6889542327   -3.4365563175   -0.9370977281
C       -1.4084908314   -2.8730429866   -1.5800005570
C       -0.5258180360   -4.0080096596   -2.1377408448
C       -0.6311866759   -1.9654870807   -0.6392789160
C       -0.2469617012   -2.5163226146    0.7144693020
C       -0.3008853445   -0.7177937666   -1.0024506195
H       -3.3066739128   -2.6365997582   -0.5150376404
H       -2.4600151050   -4.1466120676   -0.1345109150
H       -3.2861004579   -3.9684312912   -1.6855348062
H       -1.7200435084   -2.2563222942   -2.4316502202
H       -0.0079091317   -4.5490666705   -1.3387284883
H        0.2448927694   -3.6039346075   -2.8023392994
H       -1.1247269666   -4.7281791908   -2.7055570681
H        0.3032902116   -3.4601895759    0.6272783467
H        0.3798507495   -1.8098721152    1.2650805335
H       -1.1351986159   -2.7237636720    1.3226570454
H        0.2657739271   -0.0610388934   -0.3456209831
H       -0.5869269499   -0.3126969205   -1.9711202454
18   
torsion grid (-60,)
C       -2.6231585368   -3.3760936587   -0.8528510273
C       -1.3241571220   -2.8688710678   -1.5067178433
C       -0.4615072704   -4.0496478139   -1.9904798859
C       -0.5494876108   -1.9350906944   -0.5892885443
C       -0.0473258304   -2.4909303252    0.7230660007
C       -0.3223098824   -0.6603489029   -0.9373390090
H       -3.2391944779   -2.5428572625   -0.4990604215
H       -2.4154764936   -4.0309710750    0.0004235765
H       -3.2125238478   -3.9540147735   -1.5733626229
H       -1.6066396394   -2.2837298713   -2.3901104475
H       -0.1829632334   -4.7107399410   -1.1626027973
H        0.4593584842   -3.6965710446   -2.4661224738
H       -1.0133333141   -4.6523011110   -2.7204180292
H        0.6258216365   -3.3417041510    0.5663163477
H        0.4966215341   -1.7315480608    1.2910467808
H       -0.8736654796   -2.8512368940    1.3467041354
H        0.2306038659    0.0194978907   -0.2923663241
H       -0.6827676741   -0.2549807229   -1.8807312567
18   
torsion grid (-45,)
C       -2.6580105211   -3.3604722011   -0.9001636268
C       -1.3536885516   -2.8670685455   -1.5539843272
C       -0.4888140962   -4.0612171384   -2.0081795575
C       -0.5854791865   -1.9333023423   -0.6307056146
C       -0.0519607206   -2.5081763442    0.6607566105
C       -0.3867974425   -0.6483068947   -0.9573686359
H       -3.2879906635   -2.5198130535   -0.5917349080
H       -2.4549442994   -3.9757342575   -0.0172896167
H       -3.2309692467   -3.9759290481   -1.6032035646
H       -1.6212694815   -2.2861954036   -2.4441579815
H       -0.4384905868   -4.8369252319   -1.2360853721
H        0.5288185112   -3.7507070173   -2.2646221384
H       -0.9315111471   -4.5301994083   -2.8943356620
H        0.6182575617   -3.3549368247    0.4720086530
H        0.5033457645   -1.7571741527    1.2289085338
H       -0.8621972642   -2.8816587994    1.2976416628
H        0.1619533938    0.0296472676   -0.3068737712
H       -0.7679810686   -0.2321675562   -1.8878563756
18   
torsion grid (-30,)
C       -2.4710847901   -3.3334244091   -0.4752489215
C       -1.1898073842   -2.8688880588   -1.1923642317
C       -0.3394692900   -4.0848543833   -1.6364788562
C       -0.3859029244   -1.9146469864   -0.3219445105
C        0.1452473514   -2.4477558569    0.9883098039
C       -0.1525361404   -0.6527733204   -0.7098209551
H       -3.0903190143   -2.4804371310   -0.1786071121
H       -2.2363949802   -3.9139690869    0.4228369866
H       -3.0685695111   -3.9752663576   -1.1330137383
H       -1.4845364146   -2.3107541242   -2.0876646026
H       -0.4732928334   -4.9384276554   -0.9630008542
H        0.7250662147   -3.8425643121   -1.7023800867
H       -0.6619866023   -4.4263657740   -2.6265592232
H        0.7316977513   -3.3618016539    0.8376964356
H        0.7829011181   -1.7128405693    1.4868165028
H       -0.6705849793   -2.7050359167    1.6737957861
H        0.4281276733    0.0357066279   -0.0992942391
H       -0.5360878993   -0.2669549284   -1.6523035052
18   
torsion grid (-15,)
C       -2.4448803490   -3.3771574663   -0.4483507054
C       -1.2014001490   -2.8891080549   -1.2144946603
C       -0.3487486283   -4.0901618478   -1.7131286092
C       -0.3730888331   -1.9295565079   -0.3740066785
C        0.1540305682   -2.4417027207    0.9462342466
C       -0.1168279704   -0.6825639597   -0.7941825970
H       -3.0566241522   -2.5352400422   -0.1070133941
H       -2.1656445691   -3.9734726026    0.4264945756
H       -3.0665028042   -4.0104028124   -1.0915719904
H       -1.5470980502   -2.3261694984   -2.0877337455
H       -0.6326153564   -5.0236367820   -1.2155709601
H        0.7224049238   -3.9276563776   -1.5652574327
H       -0.5053785223   -4.2507455002   -2.7849312848
H        0.6773435917   -3.3975514642    0.8244253168
H        0.8470364515   -1.7291747486    1.4015503054
H       -0.6622473297   -2.6173762066    1.6566094972
H        0.4861244182    0.0068955630   -0.2067838458
H       -0.5030754743   -0.3106096928   -1.7410628328
18   
torsion grid (0,)
C       -2.7449279842   -3.1501852933   -1.7113553724
C       -1.3809847148   -2.6158257471   -2.1862170324
C       -0.5175229134   -3.7514997139   -2.8100139561
C       -0.6361176910   -1.8918689321   -1.0758214668
C       -0.3931906335   -2.6514331952    0.2076508508
C       -0.2102218545   -0.6305397204   -1.2340341091
H       -3.3514910364   -2.3532907265   -1.2675677133
H       -2.6279367595   -3.9442832503   -0.9659729151
H       -3.3018542309   -3.5717043434   -2.5553833596
H       -1.5798688748   -1.8736596819   -2.9664939994
H       -1.0405767525   -4.7135149843   -2.7941031137
H        0.4291247265   -3.8849782517   -2.2784672797
H       -0.2688403091   -3.5279931410   -3.8516587477
H        0.0561020490   -3.6330866752    0.0158368347
H        0.2700343478   -2.0984382220    0.8781269939
H       -1.3337422976   -2.8348028560    0.7402325013
H        0.3377590360   -0.1088300274   -0.4520805732
H       -0.3962242570   -0.0785859335   -2.1531673133
18   
torsion grid (15,)
C       -2.7390995079   -3.1887776449   -1.6765688132
C       -1.3919645390   -2.6235798806   -2.1624680545
C       -0.5205671676   -3.7285748675   -2.8197693048
C       -0.6345213590   -1.8916194792   -1.0662634474
C       -0.4077436696   -2.6264276994    0.2344279742
C       -0.1840953037   -0.6425164343   -1.2515986886
H       -3.3444261439   -2.4138626830   -1.1937332196
H       -2.6008383147   -4.0060858494   -0.9598253586
H       -3.3082694948   -3.5866862221   -2.5233855237
H       -1.6235523654   -1.8810818172   -2.9343021499
H       -1.1119207291   -4.6204525057   -3.0532283560
H        0.2817061956   -4.0574635698   -2.1512831404
H       -0.0461712647   -3.3697464501   -3.7372073185
H        0.0291596966   -3.6182117216    0.0685972792
H        0.2596910255   -2.0674381051    0.8956601163
H       -1.3537189704   -2.7848035890    0.7655270966
H        0.3757452346   -0.1153691492   -0.4818234833
H       -0.3610524827   -0.1065749259   -2.1819612544
18   
torsion grid (30,)
C       -2.7933565006   -3.1499668558   -1.5742512624
C       -1.4396921534   -2.6024354201   -2.0613475479
C       -0.5901515820   -3.7164661731   -2.7170616785
C       -0.6667430040   -1.8782934043   -0.9704259996
C       -0.4574488085   -2.6025440416    0.3391529932
C       -0.1880647067   -0.6416227636   -1.1682784143
H       -3.3833891763   -2.3697759909   -1.0812383898
H       -2.6660039130   -3.9759818938   -0.8652968122
H       -3.3731680714   -3.5302097827   -2.4218443306
H       -1.6611166398   -1.8607737799   -2.8379277526
H       -1.2275281465   -4.4758630308   -3.1832808053
H        0.0161234016   -4.2438992627   -1.9723640903
H        0.0940804471   -3.3085668262   -3.4661745138
H       -0.0227989862   -3.5974855318    0.1882777186
H        0.2060380570   -2.0401219360    1.0014230823
H       -1.4094218117   -2.7511778346    0.8622817162
H        0.3824710461   -0.1188737151   -0.4033946587
H       -0.3516589727   -0.1117596583   -2.1046048834
18   
torsion grid (45,)
C       -2.8058261281   -3.1800582591   -1.5968911722
C       -1.4614282856   -2.6651958119   -2.1424365962
C       -0.6506567806   -3.8124930034   -2.7780476428
C       -0.6530997168   -1.9148390408   -1.0951989391
C       -0.3559255800   -2.6222466323    0.2066603533
C       -0.2211186474   -0.6661420650   -1.3231400053
H       -3.3737654090   -2.3755155715   -1.1176251088
H       -2.6644180865   -3.9793535667   -0.8607411183
H       -3.4143124697   -3.5875056168   -2.4113505653
H       -1.6907146379   -1.9482207501   -2.9400894534
H       -1.2913719519   -4.4305262181   -3.4170062307
H       -0.2359560489   -4.4788888737   -2.0135000405
H        0.1823245481   -3.4277593168   -3.3739618504
H        0.1382131012   -3.5863464211    0.0404699171
H        0.2920300433   -2.0169282408    0.8460930052
H       -1.2776338279   -2.8312080552    0.7622031520
H        0.3680858669   -0.1207877898   -0.5887868929
H       -0.4430516597   -0.1485135748   -2.2543000819
18   
torsion grid (60,)
C       -2.8635421893   -2.9968281423   -1.4950931557
C       -1.4574513365   -2.5493495155   -1.9364416321
C       -0.6581420737   -3.7411184619   -2.4962591698
C       -0.7091274695   -1.8351899594   -0.8211985163
C       -0.4132703703   -2.6121813010    0.4406014339
C       -0.3261059371   -0.5575206104   -0.9574369022
H       -3.4372790337   -2.1562671352   -1.0910727867
H       -2.8154101716   -3.7757594526   -0.7263476404
H       -3.4170429138   -3.4099839663   -2.3456558767
H       -1.5820560083   -1.8246440431   -2.7499612685
H       -1.1717316593   -4.1718397726   -3.3630181895
H       -0.5482744222   -4.5373973733   -1.7519899370
H        0.3433869237   -3.4315152911   -2.8123364556
H        0.1896540758   -3.5030878444    0.2301142390
H        0.1324912302   -1.9992343449    1.1628080191
H       -1.3350989551   -2.9595920502    0.9213413038
H        0.2107888035   -0.0335304406   -0.1693541279
H       -0.5376703915    0.0066070784   -1.8636624008
18   
torsion grid (75,)
C       -2.8433901271   -2.9862575366   -1.4464595279
C       -1.4411536823   -2.5562197483   -1.9173469916
C       -0.6483041805   -3.7702205251   -2.4452738523
C       -0.6850762243   -1.8236989751   -0.8192027840
C       -0.3362218154   -2.6003666628    0.4290391682
C       -0.3383015891   -0.5363256016   -0.9598908699
H       -3.4205767136   -2.1280093834   -1.0872213846
H       -2.7851476951   -3.7207199752   -0.6362799004
H       -3.3988779608   -3.4504500756   -2.2694173927
H       -1.5655327125   -1.8491592538   -2.7455260803
H       -1.0144054053   -4.0660850836   -3.4343892678
H       -0.7306929361   -4.6332329820   -1.7762375065
H        0.4140168256   -3.5269189831   -2.5558228447
H        0.2713775249   -3.4816128194    0.1921300810
H        0.2246778712   -1.9829732710    1.1357047581
H       -1.2358402783   -2.9638755220    0.9390148014
H        0.2034345985   -0.0009953918   -0.1828273271
H       -0.5861960444    0.0248634955   -1.8587166433
18   
torsion grid (90,)
C       -2.8251845268   -3.0831807041   -1.2115712182
C       -1.3988730562   -2.6801099700   -1.6307802225
C       -0.5948490146   -3.9172420358   -2.1024583565
C       -0.6830631989   -1.9434471393   -0.5086870850
C       -0.4363687129   -2.7010682435    0.7751551461
C       -0.2775794625   -0.6747957639   -0.6612392681
H       -3.4093855268   -2.2100056867   -0.9028209243
H       -2.8088325952   -3.7945738041   -0.3794101686
H       -3.3487397332   -3.5662801815   -2.0446322146
H       -1.4761292445   -1.9820617291   -2.4713958074
H       -0.7196070575   -4.0718684683   -3.1792059119
H       -0.8978005285   -4.8300534980   -1.5796024573
H        0.4783945215   -3.7750917139   -1.9364584787
H        0.0885576954   -3.6447708324    0.5857667290
H        0.1639599896   -2.1127787014    1.4742511940
H       -1.3781313336   -2.9576946012    1.2741007827
H        0.2424212766   -0.1407896309    0.1314447918
H       -0.4551018103   -0.1278061908   -1.5850986081
18   
torsion grid (105,)
C       -2.9476762441   -3.0147243796   -1.6846249160
C       -1.5687831665   -2.5228593148   -2.1627361997
C       -0.7395394696   -3.6920352482   -2.7658206534
C       -0.8120037150   -1.8207759701   -1.0458713286
C       -0.5340624193   -2.6144803257    0.2094791769
C       -0.4035458472   -0.5505897488   -1.1762527835
H       -3.5415359222   -2.1924058251   -1.2714712730
H       -2.8505388595   -3.7865093880   -0.9139408070
H       -3.5074630498   -3.4533323339   -2.5184749143
H       -1.7349881149   -1.7783318940   -2.9482784256
H       -0.7095322707   -3.6267164744   -3.8578392553
H       -1.1458532733   -4.6705153444   -2.4904052871
H        0.3016019820   -3.6587330291   -2.4297510331
H       -0.0671572709   -3.5791975948   -0.0221930911
H        0.1286277398   -2.0690484804    0.8866783398
H       -1.4611337111   -2.8347911590    0.7514940030
H        0.1502003493   -0.0436014595   -0.3886833442
H       -0.6107718659    0.0240797226   -2.0767656553
18   
torsion grid (120,)
C       -2.9912589907   -3.0545864370   -1.5688211865
C       -1.6141779616   -2.5166802530   -1.9996247330
C       -0.7249967483   -3.6517325727   -2.5874590881
C       -0.9104838314   -1.7837105117   -0.8685432373
C       -0.7107949990   -2.5348253589    0.4272942920
C       -0.4818720703   -0.5224721532   -1.0199223687
H       -3.6158821383   -2.2581786625   -1.1498843184
H       -2.8964970375   -3.8445569085   -0.8159161418
H       -3.5173804945   -3.4825563222   -2.4291986063
H       -1.7895470252   -1.7795669545   -2.7902743938
H       -0.4430410702   -3.4329765577   -3.6216058760
H       -1.2448382423   -4.6156564739   -2.5848510915
H        0.2035864117   -3.7787026096   -2.0234929239
H       -0.2551170276   -3.5175194693    0.2570353705
H       -0.0706385824   -1.9772512409    1.1161562317
H       -1.6687527149   -2.7151102070    0.9290169534
H        0.0376617785    0.0052507583   -0.2227375113
H       -0.6370346685    0.0233337900   -1.9484079049
18   
torsion grid (135,)
C       -2.9653210879   -3.1028243138   -1.5456894171
C       -1.5981923116   -2.5308953987   -1.9632238096
C       -0.6875672860   -3.6313651962   -2.5737930446
C       -0.9023574572   -1.7939839718   -0.8300932946
C       -0.7328156138   -2.5297088802    0.4787743813
C       -0.4549344184   -0.5404042635   -0.9907806466
H       -3.5984721662   -2.3305210269   -1.0954078818
H       -2.8592528046   -3.9186620533   -0.8218964355
H       -3.4886787209   -3.5047083820   -2.4197770972
H       -1.7933200144   -1.7905144017   -2.7468960453
H       -0.1969509229   -3.2736967644   -3.4837466124
H       -1.2724045853   -4.5144703780   -2.8549745612
H        0.0889547491   -3.9626998917   -1.8785902931
H       -0.2785241554   -3.5167786092    0.3325944620
H       -0.1043279916   -1.9659252909    1.1732693819
H       -1.7021682717   -2.6987324750    0.9623027875
H        0.0612640140   -0.0098230241   -0.1933543362
H       -0.5905520360   -0.0040953498   -1.9278504698
18   
torsion grid (150,)
C       -2.8931767888   -3.2040084874   -1.6170043824
C       -1.5572330197   -2.5871591820   -2.0694904114
C       -0.6294713310   -3.6564760738   -2.6933793295
C       -0.8577424385   -1.8154718561   -0.9618240220
C       -0.6387560266   -2.5241747190    0.3546471232
C       -0.4498278945   -0.5523576865   -1.1508767352
H       -3.5383539692   -2.4536582260   -1.1472418014
H       -2.7421439298   -4.0175471824   -0.8984012625
H       -3.4267876418   -3.6204674043   -2.4778306128
H       -1.7949602170   -1.8639439391   -2.8583167655
H        0.0226887837   -3.2132631995   -3.4519193423
H       -1.2206757975   -4.4307624967   -3.1963373562
H       -0.0065737328   -4.1558981148   -1.9453405386
H       -0.1404048084   -3.4908495243    0.2174014200
H       -0.0281889584   -1.9217154669    1.0324336787
H       -1.5930689183   -2.7302920496    0.8534488386
H        0.0678208640    0.0050848234   -0.3729740052
H       -0.6205055561   -0.0347242635   -2.0927624624
18   
torsion grid (165,)
C       -3.0747316424   -2.9763319454   -1.3813134633
C       -1.6769495661   -2.4666228716   -1.7772039836
C       -0.8179869920   -3.6083410485   -2.3568291115
C       -0.9708334543   -1.7498286204   -0.6365113516
C       -0.8061172284   -2.4934875062    0.6685522366
C       -0.5130599355   -0.4987109950   -0.7875897243
H       -3.6796432051   -2.1755705966   -0.9427085632
H       -3.0164640483   -3.7937758056   -0.6538464664
H       -3.6022649779   -3.3580109410   -2.2620509661
H       -1.8174574141   -1.7291941951   -2.5766501400
H        0.0602906656   -3.2124402741   -2.8763256557
H       -1.3973582864   -4.1858870652   -3.0865830561
H       -0.4812665734   -4.3045924169   -1.5820136565
H       -0.3030813559   -3.4566948015    0.5254224844
H       -0.2206568461   -1.9104413436    1.3844354419
H       -1.7788500683   -2.7097446807    1.1255771964
H        0.0039570591    0.0229265056    0.0152020591
H       -0.6402137089    0.0448122867   -1.7217532384
18   
torsion grid (180,)
C       -2.9763827357   -2.9631785334   -1.1868185159
C       -1.5773044348   -2.4961461879   -1.6302106219
C       -0.7478090430   -3.6839866493   -2.1532448136
C       -0.8532047355   -1.7367487614   -0.5289566184
C       -0.5496292909   -2.4739287538    0.7547040187
C       -0.4978123016   -0.4547352858   -0.6958025918
H       -3.5711268238   -2.1255603654   -0.8078406498
H       -2.9166871116   -3.7213602145   -0.3983852328
H       -3.5147612218   -3.4095759399   -2.0302616555
H       -1.7118645124   -1.7958107351   -2.4632550799
H        0.2488579407   -3.3604236613   -2.4707237771
H       -1.2453606571   -4.1482972771   -3.0119934337
H       -0.6258008985   -4.4580462453   -1.3877511447
H        0.0738666643   -3.3566977862    0.5716655340
H       -0.0224319481   -1.8306137451    1.4641763026
H       -1.4671918433   -2.8286513246    1.2382704310
H        0.0214588016    0.1014152553    0.0819840212
H       -0.7151898377    0.0808380044   -1.6178394795
