15   
torsion grid (-165,)
C        4.2319995403   -4.0488270015   -0.0484302307
C        3.3448125908   -2.8670059542   -0.4547168157
C        2.0249237857   -2.8087279771    0.3388996823
C        1.0081792986   -1.8917898336   -0.2847374547
C        0.4921366902   -0.7990294182    0.2896866505
H        5.1710930103   -4.0553325706   -0.6121737725
H        3.7234410502   -5.0020035011   -0.2331520224
H        4.4842109445   -4.0098182555    1.0179136691
H        3.8836563731   -1.9208126057   -0.3265774569
H        3.1148453021   -2.9439340465   -1.5254108042
H        2.2212847909   -2.5079454808    1.3746727296
H        1.6026197470   -3.8234270216    0.3811763378
H        0.6920055508   -2.1537005337   -1.2965732338
H       -0.2359337301   -0.1740907685   -0.2220557517
H        0.7805638289   -0.4954558155    1.2949696351
15   
torsion grid (-150,)
C        4.1355431932   -4.1186423790   -0.1447757055
C        3.3698041148   -2.8092141331   -0.3652180176
C        2.0602299239   -2.7269033840    0.4525238382
C        0.9974122315   -1.8997252381   -0.2182514184
C        0.4388118650   -0.7927366300    0.2846615089
H        5.0698233320   -4.1366558677   -0.7164377758
H        3.5330389092   -4.9786621052   -0.4585060515
H        4.3894920428   -4.2611280002    0.9124332833
H        4.0024918307   -1.9464131391   -0.1276630665
H        3.1301579739   -2.7202345806   -1.4324648972
H        2.2598999403   -2.3464366073    1.4603949613
H        1.6684206677   -3.7468457968    0.5777818474
H        0.6810652191   -2.2486649707   -1.2033966981
H       -0.3245617640   -0.2405943315   -0.2584069235
H        0.7265828563   -0.4039616396    1.2603180430
15   
torsion grid (-135,)
C        4.0419890853   -4.1592091017   -0.2726753902
C        3.4245818286   -2.7562539171   -0.2978077031
C        2.1306785000   -2.6388265810    0.5514554687
C        1.0251470293   -1.9003143037   -0.1532613800
C        0.4351030162   -0.7810008067    0.2818030940
H        4.9604155380   -4.2034967094   -0.8683156972
H        3.3426690674   -4.8993048034   -0.6784323754
H        4.2921389250   -4.4669319819    0.7495797253
H        4.1546010631   -2.0135559729    0.0426989899
H        3.1977394649   -2.4925763648   -1.3379196743
H        2.3414226951   -2.1663468940    1.5167060484
H        1.7703666638   -3.6522917564    0.7779926466
H        0.7029796305   -2.3303272983   -1.1039954041
H       -0.3584718953   -0.2971273003   -0.2826441960
H        0.7269243441   -0.3128925159    1.2207050765
15   
torsion grid (-120,)
C        3.9788526552   -4.1290846843   -0.4336118292
C        3.5013157461   -2.6817098516   -0.2669447143
C        2.2051564535   -2.5531585975    0.5838557640
C        1.0657545817   -1.9212707744   -0.1695225104
C        0.4215001390   -0.8048682968    0.1892702473
H        4.8891129930   -4.1837710850   -1.0409050011
H        3.2126715909   -4.7414203184   -0.9237298033
H        4.1963446954   -4.5879630972    0.5378779873
H        4.2975375021   -2.0840291566    0.1904864031
H        3.3326356042   -2.2417096400   -1.2564990471
H        2.3971048728   -1.9801039220    1.4970008430
H        1.8952998288   -3.5552774360    0.9103921575
H        0.7671222841   -2.4284190874   -1.0896444170
H       -0.3915017614   -0.3980924998   -0.4073925263
H        0.6870472341   -0.2616041564    1.0949227074
15   
torsion grid (-105,)
C        3.9138572096   -4.1185751911   -0.5245866702
C        3.5838381491   -2.6565412489   -0.2006311952
C        2.3092351263   -2.4932433849    0.6731398197
C        1.1226985573   -1.9990849494   -0.1106290597
C        0.4344928042   -0.8816168342    0.1495052926
H        4.8031569302   -4.1981261979   -1.1594659216
H        3.0847669793   -4.6064195492   -1.0513125227
H        4.1034061933   -4.6888789878    0.3918506587
H        4.4370921355   -2.2096025838    0.3224847543
H        3.4676435328   -2.0847853578   -1.1280322701
H        2.4989828445   -1.7978084670    1.4978204613
H        2.0647846808   -3.4598551906    1.1337670280
H        0.8277736303   -2.6094428512   -0.9671705529
H       -0.4079493379   -0.5741541847   -0.4654574835
H        0.6921936473   -0.2376066766    0.9890255823
15   
torsion grid (-90,)
C        3.8231734239   -3.9961718561   -0.6229731309
C        3.6102462075   -2.5524549179   -0.1513330321
C        2.3434682461   -2.3748351049    0.7210290972
C        1.1172408550   -2.0460358956   -0.0888003314
C        0.3634953155   -0.9512829377    0.0645228592
H        4.7148469724   -4.0839064320   -1.2531908023
H        2.9692360508   -4.3592694560   -1.2072337655
H        3.9485267980   -4.6699513728    0.2321114413
H        4.4863715163   -2.2439532312    0.4318029007
H        3.5597393597   -1.8735840668   -1.0100909123
H        2.5020383522   -1.5740964879    1.4521242671
H        2.1741324210   -3.2951526527    1.2967203091
H        0.8472202278   -2.7618179275   -0.8680809338
H       -0.5045020835   -0.7637296661   -0.5630578731
H        0.5908174477   -0.2060515216    0.8254445763
15   
torsion grid (-75,)
C        3.8638492232   -3.9392409311   -0.8243950452
C        3.7668400435   -2.5756772280   -0.1290116297
C        2.5102269613   -2.4186308083    0.7546204411
C        1.2474424924   -2.2041806372   -0.0373324797
C        0.4740306361   -1.1144973420    0.0336243598
H        4.7782638634   -4.0143097917   -1.4226037177
H        3.0168838498   -4.1141213058   -1.4969576471
H        3.8775331363   -4.7523076276   -0.0892865362
H        4.6532125258   -2.4393082759    0.5030348225
H        3.7873003290   -1.7695552731   -0.8717896276
H        2.6467240943   -1.5709990924    1.4360340259
H        2.4058461498   -3.3153142421    1.3818117344
H        0.9624893288   -3.0013632232   -0.7257567257
H       -0.4220401741   -1.0098594766   -0.5735571398
H        0.7119405401   -0.2905259961    0.7049105679
15   
torsion grid (-60,)
C        3.7888108966   -3.9266021723   -0.8548657653
C        3.8275119173   -2.6378938516   -0.0244765746
C        2.5689015841   -2.4024008860    0.8368468867
C        1.2942685286   -2.3004199367    0.0416024171
C        0.5407969753   -1.1989886859   -0.0586882653
H        4.7361930415   -4.0809898036   -1.3821396463
H        2.9948995973   -3.8994995138   -1.6079956788
H        3.6158778683   -4.8026235798   -0.2180116175
H        4.6993138807   -2.6620484146    0.6411189245
H        3.9663768723   -1.7776157730   -0.6907060365
H        2.7014924352   -1.4882676859    1.4268126488
H        2.4777516495   -3.2317723138    1.5531213358
H        0.9782044782   -3.1980713936   -0.4907649583
H       -0.3690026712   -1.1812477087   -0.6541878401
H        0.8093145613   -0.2771863722    0.4555246280
15   
torsion grid (-45,)
C        3.6435650917   -3.8925344162   -0.8507055792
C        3.8520043466   -2.7082220094    0.1009551508
C        2.6123816943   -2.3297070510    0.9439907896
C        1.3216014516   -2.2814830618    0.1701766582
C        0.6020569388   -1.1756435104   -0.0543887145
H        4.5808739992   -4.1558444682   -1.3521973677
H        2.9079400147   -3.6582347853   -1.6260477280
H        3.2934751361   -4.7833553845   -0.3145114193
H        4.6844164919   -2.9202722775    0.7825883092
H        4.1506093918   -1.8340639248   -0.4912293018
H        2.7875506776   -1.3657967117    1.4343643125
H        2.5007506094   -3.0747389566    1.7452775627
H        0.9594218671   -3.2292974976   -0.2283664804
H       -0.3265328083   -1.2029113187   -0.6198106637
H        0.9181814486   -0.2045760354    0.3241292652
15   
torsion grid (-30,)
C        3.5606600804   -3.7725003881   -0.8818000515
C        3.8071798406   -2.6877647586    0.1742235266
C        2.5465786753   -2.2082605039    0.9434639296
C        1.2574086551   -2.2794812367    0.1686310590
C        0.5023824208   -1.2267931209   -0.1672991809
H        4.5045788816   -4.0720660888   -1.3496073371
H        2.8950400737   -3.4132518806   -1.6722798598
H        3.1088727059   -4.6723385428   -0.4466639592
H        4.5546116465   -3.0321592989    0.8978972438
H        4.2501384617   -1.8221493113   -0.3339206752
H        2.7053597865   -1.1885350742    1.3094996549
H        2.4262116718   -2.8414498618    1.8343447297
H        0.9237896980   -3.2751447798   -0.1237258181
H       -0.4285126244   -1.3435309946   -0.7173454827
H        0.7901257108   -0.2113273201    0.1012851314
15   
torsion grid (-15,)
C        3.5543419200   -3.7208987364   -0.9717720631
C        3.8025427520   -2.7465874014    0.1874481607
C        2.5281228291   -2.1893147816    0.8941618524
C        1.2326466405   -2.3850127921    0.1513102919
C        0.4358716519   -1.3992488914   -0.2779251267
H        4.5060245095   -4.0295172689   -1.4177296467
H        2.9486238967   -3.2584386739   -1.7569571569
H        3.0366375147   -4.6294181089   -0.6428235836
H        4.4504949992   -3.2202350210    0.9329072383
H        4.3722318491   -1.8984162780   -0.2103607209
H        2.6629960399   -1.1257498587    1.1152837210
H        2.4225431538   -2.6912133146    1.8658170256
H        0.9294065972   -3.4163245534   -0.0300077877
H       -0.4995144195   -1.6043831861   -0.7933724190
H        0.6926290636   -0.3521579030   -0.1236010053
15   
torsion grid (0,)
C        4.0333014926   -2.9212787791   -0.0578302881
C        2.8218624713   -3.7144998323   -0.5671790375
C        1.4340645601   -3.0032157251   -0.4417610120
C        1.4579702313   -1.6243978754    0.1647528267
C        0.8290704454   -1.2713127384    1.2916890529
H        4.9417628118   -3.5290303057   -0.1316729940
H        3.9082383131   -2.6260851106    0.9886251970
H        4.2002875560   -2.0092054196   -0.6407081373
H        2.9948011795   -3.9884530211   -1.6137266834
H        2.7757372815   -4.6602198517   -0.0159278458
H        0.7525167717   -3.6282107431    0.1444175265
H        0.9872986565   -2.9234103502   -1.4411396333
H        2.0261541321   -0.8648456366   -0.3734509717
H        0.8697678512   -0.2538188723    1.6734124440
H        0.2494278292   -1.9904327092    1.8688175643
15   
torsion grid (15,)
C        3.9614287110   -2.9418798686    0.0783370722
C        2.7709804455   -3.6637811317   -0.5671010321
C        1.3756485225   -2.9961578185   -0.3500756290
C        1.4080103776   -1.5745165754    0.1471921940
C        0.9137576557   -1.1623567719    1.3199601731
H        4.8834228508   -3.5118040597   -0.0813475781
H        3.8230630808   -2.8182941518    1.1574876903
H        4.1096728842   -1.9449217740   -0.3478387626
H        2.9658953354   -3.7451120619   -1.6430641405
H        2.7259217945   -4.6928764131   -0.1946793790
H        0.8001332177   -3.5882250970    0.3702816100
H        0.8138392990   -3.0319642035   -1.2916368464
H        1.8667816375   -0.8353359345   -0.5117449684
H        0.9583774482   -0.1190557119    1.6234233384
H        0.4462072287   -1.8576431513    2.0157385758
15   
torsion grid (30,)
C        3.9827495650   -3.0207223694    0.1733776972
C        2.8360586510   -3.6510768133   -0.6265209681
C        1.4297705105   -3.0549602288   -0.3392068159
C        1.4291966076   -1.6040711105    0.0640242533
C        0.9969845802   -1.1348767250    1.2396421334
H        4.9283322533   -3.5289347582   -0.0453601573
H        3.8060267825   -3.0872648877    1.2528483344
H        4.1062489300   -1.9613398830   -0.0691359413
H        3.0617618822   -3.5327852952   -1.6941174304
H        2.8000547030   -4.7310824603   -0.4454619979
H        0.9566566642   -3.6261778959    0.4687092357
H        0.7979242120   -3.1919333992   -1.2258326091
H        1.8133026443   -0.8936361088   -0.6711128821
H        1.0187010250   -0.0731156918    1.4734597473
H        0.6063048102   -1.8003384722    2.0081104478
15   
torsion grid (45,)
C        4.0447035943   -3.0731164128    0.2970731699
C        2.9463140729   -3.6094829097   -0.6277553413
C        1.5239958834   -3.1160905217   -0.2743897139
C        1.4437740552   -1.6422343981    0.0215109261
C        1.0283711942   -1.1083539017    1.1753880822
H        5.0188392423   -3.4984224898    0.0322510651
H        3.8413913795   -3.3247896066    1.3447591791
H        4.1220088147   -1.9838051478    0.2354693927
H        3.1806667939   -3.3126438548   -1.6587890551
H        2.9464184287   -4.7057295427   -0.6199363566
H        1.1580328446   -3.6661057721    0.6016569989
H        0.8491889693   -3.3628903268   -1.1047558705
H        1.7582774558   -0.9720258943   -0.7819074619
H        0.9928098588   -0.0320612096    1.3264686080
H        0.7092444418   -1.7331332355    2.0082578909
15   
torsion grid (60,)
C        4.1702358842   -3.1991656952    0.2915925194
C        3.0450941099   -3.5593393819   -0.6844875916
C        1.6455130918   -3.1347286540   -0.1944086190
C        1.5170281678   -1.6515935041    0.0281550467
C        1.2080055678   -1.0644675151    1.1897686005
H        5.1414248921   -3.5395597864   -0.0834701589
H        4.0061762017   -3.6668064012    1.2698443209
H        4.2274779426   -2.1181937623    0.4517544609
H        3.2419405070   -3.0896443168   -1.6574087789
H        3.0395565698   -4.6416151566   -0.8621579505
H        1.4066545427   -3.6639569473    0.7364644664
H        0.9030482807   -3.4520250124   -0.9394582107
H        1.7055727487   -1.0218008228   -0.8443618133
H        1.1325094444    0.0165246943    1.2808971850
H        1.0181079115   -1.6486435828    2.0889108027
15   
torsion grid (75,)
C        4.1368762606   -3.3927214905    0.3093113897
C        3.0277310189   -3.5403432931   -0.7379665379
C        1.6284464623   -3.1955999267   -0.1852879867
C        1.4158187692   -1.7148682551   -0.0177618735
C        1.1817197820   -1.0877893595    1.1408046247
H        5.1197531793   -3.6212557391   -0.1167890840
H        3.9701038221   -4.0746954016    1.1512852225
H        4.1706321794   -2.3739026880    0.7096430233
H        3.2424189283   -2.9030808709   -1.6053034953
H        3.0171553111   -4.5722836669   -1.1098937237
H        1.4691779957   -3.7088005077    0.7705576691
H        0.8712014557   -3.5798362275   -0.8824820801
H        1.4785896270   -1.1224426693   -0.9330696995
H        1.0431003347   -0.0102718656    1.1894120789
H        1.1172095733   -1.6351096894    2.0799617737
15   
torsion grid (90,)
C        4.1892403375   -3.4187671875    0.4161132829
C        3.0685059509   -3.4083376402   -0.6295558532
C        1.6819431069   -3.1033134006   -0.0124207016
C        1.3689196284   -1.6311950586    0.0111752839
C        1.1823526652   -0.8923966137    1.1113277854
H        5.1671005385   -3.5930212452   -0.0459573460
H        4.0221302319   -4.2094698041    1.1562719764
H        4.2366932844   -2.4640878569    0.9523761761
H        3.2905841391   -2.6754201220   -1.4144698944
H        3.0368876390   -4.3868129967   -1.1239666916
H        1.6207125150   -3.5202470555    0.9992691496
H        0.9088849182   -3.6074427176   -0.6080259171
H        1.3126643365   -1.1455279128   -0.9650938092
H        0.9674256327    0.1721663605    1.0553852559
H        1.2341674416   -1.3322382557    2.1060802719
15   
torsion grid (105,)
C        4.1970132028   -3.5666565049    0.3197503439
C        3.0931615536   -3.3615242777   -0.7243139678
C        1.7050414394   -3.0918234196   -0.0804981916
C        1.2884610536   -1.6484041055   -0.1729831361
C        1.0686616639   -0.8352583938    0.8669930866
H        5.1731477093   -3.7200553077   -0.1534900932
H        3.9855607757   -4.4416335284    0.9447049105
H        4.2784056218   -2.6960231340    0.9809801386
H        3.3605787555   -2.5300248282   -1.3863461571
H        3.0383281741   -4.2525328040   -1.3605909738
H        1.7070075269   -3.4112724365    0.9675135100
H        0.9463782433   -3.7009858205   -0.5892179939
H        1.1794941423   -1.2512296914   -1.1841110460
H        0.7780418989    0.2034809212    0.7287079272
H        1.1695226490   -1.1857611699    1.8930077433
15   
torsion grid (120,)
C        4.2922888059   -3.7120492655    0.3241407930
C        3.1853613086   -3.3038342457   -0.6551209450
C        1.8072884824   -3.1117839962    0.0423507972
C        1.2583557755   -1.7189463106   -0.1125768249
C        0.9960215714   -0.8747561529    0.8921008518
H        5.2553702999   -3.8265425835   -0.1855338301
H        4.0560650062   -4.6644257213    0.8125511632
H        4.4158712421   -2.9569754944    1.1090966810
H        3.4759822312   -2.3720079140   -1.1532973637
H        3.1041583322   -4.0586693033   -1.4454652065
H        1.8932035337   -3.3464287544    1.1092708134
H        1.0841320306   -3.8259306786   -0.3719308122
H        1.0846491638   -1.3860477079   -1.1378826790
H        0.6103408890    0.1257861706    0.7113329015
H        1.1571947481   -1.1600808981    1.9305599179
15   
torsion grid (135,)
C        4.2720860090   -3.6751047507    0.2355503861
C        3.1733086812   -3.1063130839   -0.6698461019
C        1.8149361945   -2.9413406771    0.0663933071
C        1.1504080703   -1.6200035222   -0.2121272621
C        0.8508201265   -0.6980568806    0.7102701595
H        5.2174561619   -3.7882891134   -0.3064404931
H        3.9934355624   -4.6590656986    0.6307934207
H        4.4518200957   -3.0127990287    1.0900160840
H        3.5009199464   -2.1293897303   -1.0435927990
H        3.0489998181   -3.7444605241   -1.5522849123
H        1.9701144903   -3.0329884248    1.1477298557
H        1.1407670987   -3.7596534229   -0.2177285515
H        0.9201803220   -1.4094708447   -1.2586678935
H        0.3823300245    0.2460648181    0.4427009510
H        1.0640770582   -0.8600371222    1.7658111421
15   
torsion grid (150,)
C        4.2903252488   -3.7882794620    0.1846948943
C        3.2281425031   -3.0270891608   -0.6168196925
C        1.8870212285   -2.8964878789    0.1447397271
C        1.1273538184   -1.6476031189   -0.2132081967
C        0.7862220195   -0.6811701253    0.6469754213
H        5.2226239696   -3.8876450385   -0.3818387368
H        3.9492126537   -4.7973940790    0.4451925763
H        4.5194174282   -3.2643553060    1.1194266867
H        3.6099252109   -2.0228876538   -0.8363007626
H        3.0630216084   -3.5114171889   -1.5866822338
H        2.0832706720   -2.8870409527    1.2238356923
H        1.2687862681   -3.7829489919   -0.0501532767
H        0.8593148187   -1.5314771011   -1.2656093671
H        0.2491278064    0.2071815879    0.3232686535
H        1.0331206074   -0.7486962729    1.7054901325
15   
torsion grid (165,)
C        4.3085576330   -3.9369025845    0.0232595478
C        3.2824048610   -3.0072146206   -0.6339073356
C        1.9596194815   -2.9322320936    0.1554792171
C        1.0942933208   -1.7746860331   -0.2634611261
C        0.7057734181   -0.7740226341    0.5352391146
H        5.2322891736   -3.9891131597   -0.5630327972
H        3.9182171486   -4.9568578015    0.1220765941
H        4.5686176366   -3.5833173781    1.0273901800
H        3.7069940525   -1.9986427432   -0.7068806433
H        3.0804714392   -3.3320315344   -1.6623245638
H        2.1813555194   -2.8422183507    1.2261062877
H        1.4116774275   -3.8761258488    0.0270270297
H        0.7850033091   -1.7602047309   -1.3108444418
H        0.0903072686    0.0435609016    0.1675404675
H        0.9904921789   -0.7415457956    1.5859078845
15   
torsion grid (180,)
C        4.2450685932   -4.0137639695   -0.0129274901
C        3.2992182159   -2.9278951078   -0.5372672993
C        1.9867246888   -2.8468613353    0.2635500283
C        1.0558349692   -1.7816808623   -0.2487477181
C        0.6247050050   -0.7277241369    0.4537696551
H        5.1723364547   -4.0496612606   -0.5947525828
H        3.7786970854   -5.0045125128   -0.0659428888
H        4.5146768256   -3.8306534103    1.0336611681
H        3.7972876601   -1.9514446613   -0.5028996105
H        3.0675907030   -3.1183163555   -1.5932606224
H        2.2113326781   -2.6627543053    1.3212250593
H        1.4846584518   -3.8239152691    0.2134934576
H        0.7314109596   -1.8901400468   -1.2858909659
H       -0.0413970980    0.0141788522    0.0197397654
H        0.9235607680   -0.5741442626    1.4896749631
