23   
torsion grid (-165,)
C       -2.6875517826   -3.5157752414   -0.7492603925
C       -3.7290682047   -4.3016650149   -0.2564319703
C       -2.5843717201   -4.4509095306    1.8753960346
C       -1.5785441897   -3.1592771386    0.0321387248
C       -1.5709485213   -3.6390975475    1.3576051501
C       -3.6538165151   -4.7660728559    1.0526132260
C       -1.1061315936   -1.1574094575   -2.5306561879
C       -0.6368937638   -0.7913808092   -0.3110021081
C       -0.4630108537   -2.3099897429   -0.5803465385
N       -0.4756073907   -2.2820199653   -2.0308556894
N       -0.5017498031   -3.2756271666    2.3084540167
O       -0.3976234452   -3.9382669754    3.3423811996
O       -1.4687907023   -0.9539510259   -3.6668788811
O        0.2141774467   -2.3029225776    2.0311058379
O       -1.2693459597   -0.2709175548   -1.4990281902
F       -4.6485790808   -5.5378597466    1.5393881948
H       -2.7449887612   -3.1663110127   -1.7741543658
H       -4.5856550914   -4.5557022769   -0.8730575397
H       -2.5361018513   -4.8103655494    2.8960281274
H       -1.2780874288   -0.5758856320    0.5414771678
H        0.3326840168   -0.3046789213   -0.1805046665
H        0.5045372707   -2.6445230873   -0.2110477001
H       -0.4523505451   -3.1139007572   -2.6053221339
23   
torsion grid (-150,)
C       -2.7205227668   -3.3973232692   -0.7152824114
C       -3.7613532149   -4.1881021085   -0.2280816266
C       -2.5697143374   -4.4402123778    1.8703123008
C       -1.5944995173   -3.0830276898    0.0596462819
C       -1.5642316600   -3.6155013356    1.3612125321
C       -3.6652009147   -4.7016369705    1.0617168501
C       -1.1287377626   -1.0434812178   -2.4588746500
C       -0.6878069906   -0.6977244154   -0.2313153197
C       -0.4835330077   -2.2087118738   -0.5197852331
N       -0.4721587849   -2.1594052179   -1.9701023001
N       -0.4424589388   -3.3332073007    2.2742770162
O       -0.1529583539   -4.1898834306    3.1116305253
O       -1.4891810255   -0.8347055384   -3.5946555921
O        0.1373542274   -2.2449102129    2.1521533205
O       -1.3215994807   -0.1748816974   -1.4172553955
F       -4.6609396984   -5.4772203422    1.5404685742
H       -2.7922843967   -3.0120563759   -1.7266752678
H       -4.6337590499   -4.4102788912   -0.8346779113
H       -2.4957701768   -4.8544937134    2.8689107789
H       -1.3371111188   -0.5062939482    0.6204600791
H        0.2724266792   -0.1955005619   -0.0895746967
H        0.4845560276   -2.5309363870   -0.1383207139
H       -0.4459341065   -2.9870628037   -2.5510298861
23   
torsion grid (-135,)
C       -2.7301024539   -3.3879328291   -0.7028555846
C       -3.7755461136   -4.1706109503   -0.2111036637
C       -2.5786793446   -4.4365238678    1.8859825626
C       -1.6025425579   -3.0834297067    0.0728588280
C       -1.5759466872   -3.6154176781    1.3712018438
C       -3.6806198345   -4.6835427886    1.0793196525
C       -1.0872704546   -1.0640165346   -2.4499094592
C       -0.7185658922   -0.6910737796   -0.2138753286
C       -0.4866188626   -2.2023541518   -0.4815958796
N       -0.4323151534   -2.1673411310   -1.9310151756
N       -0.4246973238   -3.3612699915    2.2544887715
O        0.0340295239   -4.3138221294    2.8870216362
O       -1.4169659556   -0.8708072342   -3.5976034703
O        0.0185682197   -2.2054089367    2.2895560954
O       -1.3217697305   -0.1875261725   -1.4232455033
F       -4.6814703671   -5.4513340883    1.5601337600
H       -2.7983054337   -3.0039310781   -1.7152856410
H       -4.6507426936   -4.3885253425   -0.8151372208
H       -2.5012365419   -4.8627677352    2.8799086352
H       -1.3953440461   -0.5017498758    0.6167017047
H        0.2308094195   -0.1754705785   -0.0479467765
H        0.4748169272   -2.5074521787   -0.0674952728
H       -0.3800213627   -3.0010510000   -2.5014917387
23   
torsion grid (-120,)
C       -2.7460084130   -3.3905204940   -0.7220061697
C       -3.7890325029   -4.1632143323   -0.2086003023
C       -2.5740267631   -4.4019494552    1.8836603543
C       -1.6113530282   -3.0823279291    0.0414087919
C       -1.5771360034   -3.5929502129    1.3447945256
C       -3.6848036094   -4.6560377877    1.0889236330
C       -1.0838269194   -1.1228428369   -2.5101188952
C       -0.7454206931   -0.6891232425   -0.2815765034
C       -0.4942300202   -2.2035159014   -0.5097693464
N       -0.4080270342   -2.1994389148   -1.9585932881
N       -0.3970872399   -3.3359201912    2.1911603556
O        0.2313162365   -4.3112740306    2.6036675731
O       -1.4084606694   -0.9652597334   -3.6644284196
O       -0.0979627525   -2.1525793297    2.3933481666
O       -1.3460932819   -0.2259989722   -1.5077276207
F       -4.6830571007   -5.4145178971    1.5898232572
H       -2.8217683521   -3.0202624639   -1.7392561079
H       -4.6699529983   -4.3889931143   -0.8011650917
H       -2.4908065771   -4.8170487753    2.8823024524
H       -1.4288075748   -0.4867712206    0.5406933509
H        0.1974160107   -0.1582647987   -0.1252484521
H        0.4620579429   -2.4894695050   -0.0680578302
H       -0.3603963340   -3.0512020079   -2.5028590648
23   
torsion grid (-105,)
C       -2.7484589468   -3.4146966502   -0.7308967033
C       -3.7923929190   -4.1775564347   -0.2035102157
C       -2.5780335307   -4.3806941675    1.8955415905
C       -1.6112505938   -3.1037513118    0.0265437533
C       -1.5776820420   -3.5946006294    1.3351855970
C       -3.6890208567   -4.6469634007    1.1024254396
C       -1.0664952498   -1.1577058903   -2.5231178957
C       -0.7399788717   -0.7130855203   -0.2961360763
C       -0.4888102128   -2.2287257495   -0.5165336371
N       -0.3858698147   -2.2278643479   -1.9638623232
N       -0.3864841731   -3.3133430157    2.1635642697
O        0.4055329564   -4.2367417524    2.3519296617
O       -1.3853673700   -1.0059223302   -3.6795558969
O       -0.2483473097   -2.1534255420    2.5658627238
O       -1.3405752462   -0.2587861341   -1.5249912328
F       -4.6891369170   -5.3934341486    1.6178090413
H       -2.8256808350   -3.0552993595   -1.7521292658
H       -4.6746204854   -4.4115553861   -0.7907780796
H       -2.5030771059   -4.7725453291    2.9044938661
H       -1.4230784346   -0.5059116569    0.5256499886
H        0.2032091410   -0.1809686460   -0.1446393449
H        0.4626401705   -2.5167696678   -0.0630135447
H       -0.3348907879   -3.0826555726   -2.5032463579
23   
torsion grid (-90,)
C       -2.7528095391   -3.4056353923   -0.7372952546
C       -3.8016178085   -4.1628586491   -0.2111857438
C       -2.5987858558   -4.3574563109    1.8964269287
C       -1.6128117929   -3.1066722625    0.0205289716
C       -1.5837405622   -3.5976147519    1.3284395926
C       -3.7055812020   -4.6261967071    1.0972830867
C       -1.0642331240   -1.1257188687   -2.4978764641
C       -0.7287477214   -0.7171842428   -0.2660892007
C       -0.4859310110   -2.2308695617   -0.5109217453
N       -0.3843177438   -2.2058500185   -1.9577893740
N       -0.3998998997   -3.3006961601    2.1656317331
O        0.5330836843   -4.1039326020    2.1306520951
O       -1.3858810010   -0.9541255057   -3.6505738942
O       -0.4227110766   -2.2499718986    2.8117233387
O       -1.3337581158   -0.2420777719   -1.4839340826
F       -4.7123781166   -5.3630601260    1.6135588095
H       -2.8289107728   -3.0401568449   -1.7565206758
H       -4.6838307055   -4.3933771651   -0.7997749217
H       -2.5394495136   -4.7308577249    2.9135053240
H       -1.4074289461   -0.5190825482    0.5625407560
H        0.2174890862   -0.1908295129   -0.1119790013
H        0.4636300694   -2.5340186539   -0.0630681173
H       -0.3353352665   -3.0520418971   -2.5107571661
23   
torsion grid (-75,)
C       -2.7160843148   -3.4102904018   -0.7530572592
C       -3.7957571672   -4.1435128565   -0.2569506731
C       -2.6651759343   -4.3462304253    1.8879741025
C       -1.5875702709   -3.1392492548    0.0326333157
C       -1.6059555610   -3.6296720820    1.3420693763
C       -3.7497779681   -4.6017278156    1.0560207432
C       -0.9665576617   -1.1684042353   -2.4711037550
C       -0.6619430115   -0.7648929289   -0.2348446926
C       -0.4350728351   -2.2816350141   -0.4755186291
N       -0.3063140574   -2.2551456603   -1.9208746395
N       -0.4593818242   -3.3482150404    2.2340270118
O        0.5781837621   -3.9860066429    2.0396907430
O       -1.2677424615   -0.9915002195   -3.6284555363
O       -0.6266596391   -2.4967890529    3.1096385832
O       -1.2441863561   -0.2824785783   -1.4602039081
F       -4.7887788838   -5.3113067581    1.5457816852
H       -2.7592214227   -3.0404446562   -1.7724713246
H       -4.6652187111   -4.3556965753   -0.8709055530
H       -2.6520661790   -4.6973104698    2.9145071808
H       -1.3505206870   -0.5559146144    0.5837259587
H        0.2888320379   -0.2502445289   -0.0682976915
H        0.4993040351   -2.6007288254   -0.0105447813
H       -0.2578590779   -3.1016925989   -2.4734100910
23   
torsion grid (-60,)
C       -2.6907428414   -3.4994188678   -0.7684675339
C       -3.7779391647   -4.2167632051   -0.2654270091
C       -2.6852833986   -4.3322878066    1.9014071994
C       -1.5715056514   -3.2021648035    0.0205686059
C       -1.6081519315   -3.6432347327    1.3505552444
C       -3.7536628781   -4.6269777625    1.0633534663
C       -1.0202846044   -1.1780495867   -2.4528442086
C       -0.5854144780   -0.8508408493   -0.2264239344
C       -0.4151201075   -2.3649484200   -0.5206218638
N       -0.3607470084   -2.2946830619   -1.9686352208
N       -0.4967128007   -3.3283262976    2.2736388408
O        0.6284932445   -3.7408899716    1.9739035724
O       -1.3707082704   -0.9562024654   -3.5885062455
O       -0.7760230360   -2.6971196747    3.2948926295
O       -1.2290527137   -0.3205944890   -1.4008579759
F       -4.7996408452   -5.3197618141    1.5621909196
H       -2.7226483561   -3.1593151960   -1.7982906401
H       -4.6372848865   -4.4497736950   -0.8861418378
H       -2.6923280656   -4.6318874499    2.9437543728
H       -1.2173461804   -0.6431462001    0.6372696672
H        0.3878162933   -0.3658113721   -0.1068965899
H        0.5272559173   -2.7283099467   -0.1121358593
H       -0.3281782833   -3.1180830058   -2.5555412719
23   
torsion grid (-45,)
C       -2.6473391725   -3.6330692093   -0.8152658055
C       -3.7359653768   -4.3363445150   -0.2946224664
C       -2.7136712887   -4.2605328708    1.9043790577
C       -1.5561844250   -3.2534322510   -0.0240849897
C       -1.6313268676   -3.5882318815    1.3389807465
C       -3.7459506216   -4.6470088654    1.0602582590
C       -1.0604620075   -1.0921608216   -2.4041352716
C       -0.4152498040   -0.9629340544   -0.2082949785
C       -0.3893927032   -2.4591454134   -0.6156344392
N       -0.4565106038   -2.2859960845   -2.0532651401
N       -0.5745802485   -3.1713133248    2.2837657624
O        0.6033624436   -3.3183372199    1.9365083339
O       -1.4748218640   -0.7580044807   -3.4896717745
O       -0.9368105845   -2.7274259854    3.3751228130
O       -1.1188154369   -0.3053667481   -1.2803662976
F       -4.7918677859   -5.3256963369    1.5780913977
H       -2.6589726463   -3.3632933736   -1.8656400591
H       -4.5702953785   -4.6316238304   -0.9230693836
H       -2.7497333760   -4.4714766512    2.9671253456
H       -0.9520038770   -0.7683545598    0.7203374431
H        0.5987593244   -0.5581892306   -0.1470675432
H        0.5520783614   -2.9166250779   -0.3180045005
H       -0.4832704841   -3.0539404795   -2.7102190253
23   
torsion grid (-30,)
C       -2.6231268530   -3.5846370451   -0.7893928670
C       -3.7177535391   -4.3021307931   -0.3042551024
C       -2.7304300473   -4.2696750393    1.9101582834
C       -1.5455514597   -3.2129664063    0.0254125653
C       -1.6427686189   -3.5690174859    1.3852004179
C       -3.7455634647   -4.6440458093    1.0428260077
C       -1.0083181658   -0.9789393378   -2.3074934119
C       -0.3540717870   -0.9386836384   -0.1087593412
C       -0.3715079547   -2.4225157092   -0.5616852128
N       -0.4587733044   -2.2066694661   -1.9921279398
N       -0.6168628129   -3.1652378723    2.3696964623
O        0.5483478344   -3.0240859516    1.9765325997
O       -1.4066431188   -0.5954645739   -3.3829567673
O       -0.9806734322   -3.0071102004    3.5366196594
O       -1.0326902517   -0.2244106896   -1.1612189260
F       -4.7935390912   -5.3432185648    1.5278840651
H       -2.6173064059   -3.2957317069   -1.8343307895
H       -4.5400590829   -4.5867300507   -0.9533066881
H       -2.7805423769   -4.5065705238    2.9662254810
H       -0.8898472082   -0.7568214930    0.8223734222
H        0.6706755755   -0.5669176189   -0.0281285325
H        0.5638426532   -2.9088532123   -0.2955951437
H       -0.4850874808   -2.9473675661   -2.6790846318
23   
torsion grid (-15,)
C       -2.6350051818   -3.5592598637   -0.7761054465
C       -3.7320203589   -4.2735922161   -0.2939917654
C       -2.7293711196   -4.2870274386    1.9106269781
C       -1.5510459765   -3.1997477874    0.0371390888
C       -1.6426466693   -3.5744085188    1.3952480160
C       -3.7542172229   -4.6384887750    1.0471834748
C       -0.9986691009   -1.0453039154   -2.3727297542
C       -0.3641699216   -0.9261642861   -0.1699106088
C       -0.3753326784   -2.4250847591   -0.5696895102
N       -0.4549254505   -2.2619231722   -2.0081117176
N       -0.6172374429   -3.1901934611    2.3897352171
O        0.4731695855   -2.7720429863    1.9776086503
O       -1.3885809674   -0.7015291292   -3.4649343715
O       -0.8992575917   -3.3168813549    3.5827777333
O       -1.0305485748   -0.2495508485   -1.2560027486
F       -4.8033145885   -5.3392892756    1.5274300048
H       -2.6301342565   -3.2640512024   -1.8190829474
H       -4.5598169395   -4.5423115191   -0.9428364726
H       -2.7694000715   -4.5471714753    2.9611474737
H       -0.9103089528   -0.7127102836    0.7474804643
H        0.6592873742   -0.5512645001   -0.0902749278
H        0.5603952964   -2.8984917019   -0.2833437443
H       -0.4789162448   -3.0274942716   -2.6674325055
23   
torsion grid (0,)
C       -2.6701029905   -3.5074835664   -0.7920336710
C       -3.7606619926   -4.2300749720   -0.3088278981
C       -2.7078100343   -4.3203042100    1.8710668054
C       -1.5718285233   -3.1671926283    0.0112741009
C       -1.6334408142   -3.5861912227    1.3583384285
C       -3.7546663722   -4.6362291243    1.0208880740
C       -1.0134013201   -1.1053139768   -2.4840534867
C       -0.4453551134   -0.8714315439   -0.2707511924
C       -0.4054940327   -2.3864564907   -0.6037022252
N       -0.4556322103   -2.2930974020   -2.0501618661
N       -0.5899110431   -3.2279128071    2.3431349055
O        0.3644441849   -2.5369446960    1.9605596960
O       -1.3873476269   -0.8241227596   -3.5997889799
O       -0.7191310255   -3.6399004967    3.4974220846
O       -1.0842983061   -0.2572008688   -1.4097375149
F       -4.7975907153   -5.3453567787    1.5021399389
H       -2.6809128484   -3.1910935275   -1.8287746861
H       -4.6030017463   -4.4761494170   -0.9479169099
H       -2.7204862731   -4.6224786626    2.9108440432
H       -1.0314673426   -0.6364080155    0.6157276279
H        0.5648076140   -0.4678328100   -0.1673072338
H        0.5382289408   -2.8177308836   -0.2777438384
H       -0.4749202511   -3.0933535717   -2.6675113260
23   
torsion grid (15,)
C       -2.6416727002   -3.5261207783   -0.7536537321
C       -3.7561287906   -4.2249202306   -0.2902219547
C       -2.7132863556   -4.4059590786    1.8910143718
C       -1.5431049340   -3.2312064545    0.0670117672
C       -1.6214993516   -3.6835164521    1.4003805189
C       -3.7684493237   -4.6617356163    1.0302223811
C       -0.8623649201   -1.2695781234   -2.4764401869
C       -0.4228732595   -0.9396163817   -0.2455458490
C       -0.3513601263   -2.4665388279   -0.5135439875
N       -0.3238347906   -2.4348159233   -1.9634935298
N       -0.5640158028   -3.3872560370    2.3874951798
O        0.2569114931   -2.5013875487    2.1109358088
O       -1.1782927460   -1.0395576977   -3.6215337826
O       -0.5558197591   -4.0333196401    3.4372167122
O       -0.9954295707   -0.3772701748   -1.4452168037
F       -4.8362942308   -5.3472040963    1.4905238324
H       -2.6323628633   -3.1950302599   -1.7860973608
H       -4.6022050568   -4.4325002140   -0.9379695170
H       -2.7321439674   -4.7469812049    2.9188580958
H       -1.0626131912   -0.6777089491    0.5947834005
H        0.5763095479   -0.5225119863   -0.0980254827
H        0.5786967665   -2.8721497617   -0.1199975579
H       -0.3233965423   -3.2631508846   -2.5432741646
23   
torsion grid (30,)
C       -2.6809857593   -3.4392249740   -0.7369210587
C       -3.7916725451   -4.1444052591   -0.2730219641
C       -2.7066276777   -4.4111979076    1.8803006572
C       -1.5685028266   -3.1769212580    0.0759780280
C       -1.6279176699   -3.6707560038    1.3917832467
C       -3.7831867324   -4.6244415162    1.0331010697
C       -0.8594806328   -1.2559674254   -2.4802995412
C       -0.4912889774   -0.8675034877   -0.2462562216
C       -0.3778692754   -2.3973796855   -0.4800842704
N       -0.3018777296   -2.3967970503   -1.9294873866
N       -0.5305628948   -3.4310835572    2.3460035842
O        0.1280433592   -2.3897828428    2.2133620364
O       -1.1578836512   -1.0610852136   -3.6363745196
O       -0.3463652072   -4.2666697284    3.2329169471
O       -1.0348355773   -0.3421133066   -1.4750795519
F       -4.8476007258   -5.3176549168    1.4899375396
H       -2.6858497942   -3.0807119560   -1.7605913565
H       -4.6516751898   -4.3263323990   -0.9099766597
H       -2.7019773403   -4.7977494683    2.8926044147
H       -1.1633084646   -0.6057207291    0.5684422436
H        0.4935253959   -0.4259398794   -0.0746143802
H        0.5494206699   -2.7700990886   -0.0469510693
H       -0.3140805818   -3.2436887842   -2.4825736366
23   
torsion grid (45,)
C       -2.6911430022   -3.4224210783   -0.7168144422
C       -3.8055439082   -4.1203344578   -0.2493655431
C       -2.7111726205   -4.4138302732    1.8991244370
C       -1.5758062251   -3.1758195884    0.0962064645
C       -1.6363419589   -3.6742905225    1.4066089072
C       -3.7956763651   -4.6064640444    1.0548082091
C       -0.8187457280   -1.2785323698   -2.4589519588
C       -0.5248808314   -0.8559583150   -0.2207458813
C       -0.3808654655   -2.3869686842   -0.4318183133
N       -0.2594760023   -2.4034616758   -1.8777663148
N       -0.5088245401   -3.4681280019    2.3323275807
O       -0.0082154505   -2.3358317112    2.3708739719
O       -1.0858568246   -1.1032596231   -3.6256181139
O       -0.1606036608   -4.4189616542    3.0338648756
O       -1.0398013638   -0.3550317526   -1.4711703556
F       -4.8642683299   -5.2930334848    1.5122230794
H       -2.6943687995   -3.0610109979   -1.7397886159
H       -4.6698969092   -4.2937222492   -0.8827051715
H       -2.7014648053   -4.8182827297    2.9049507933
H       -1.2236307340   -0.5965805302    0.5719380466
H        0.4480233086   -0.3970815541   -0.0267988855
H        0.5390861892   -2.7384515996    0.0359845611
H       -0.2428880064   -3.2580434136   -2.4188616433
23   
torsion grid (60,)
C       -2.7229170427   -3.3840121052   -0.7048344977
C       -3.8433901663   -4.0804533096   -0.2483638743
C       -2.7565624581   -4.4121174494    1.9019170373
C       -1.6092359680   -3.1616520048    0.1165456805
C       -1.6791180365   -3.6756767194    1.4170841152
C       -3.8406140648   -4.5825640681    1.0497560002
C       -0.8014403124   -1.2552328253   -2.4002763334
C       -0.5603106878   -0.8362494182   -0.1565005445
C       -0.4035389013   -2.3654858970   -0.3694612331
N       -0.2342713353   -2.3737943322   -1.8109793549
N       -0.5333603332   -3.4980321005    2.3289851910
O       -0.1975461913   -2.3352036062    2.5848454507
O       -1.0490250709   -1.0809798398   -3.5711312164
O       -0.0164214877   -4.5107865225    2.8011968139
O       -1.0563946993   -0.3375906496   -1.4148388849
F       -4.9150324687   -5.2680552058    1.4951697470
H       -2.7203214671   -3.0074411393   -1.7226597450
H       -4.7072134486   -4.2407315062   -0.8857023427
H       -2.7542113022   -4.8344678465    2.9009367045
H       -1.2733318412   -0.5833342350    0.6257636132
H        0.4070626271   -0.3719916633    0.0531197554
H        0.5033094246   -2.7155204423    0.1269724650
H       -0.2183961776   -3.2296183011   -2.3507517143
23   
torsion grid (75,)
C       -2.7423980725   -3.3446728091   -0.6998997967
C       -3.8707762391   -4.0375107617   -0.2566526740
C       -2.8058088187   -4.3842853534    1.9045431000
C       -1.6337851082   -3.1404551844    0.1324823272
C       -1.7177168860   -3.6633330010    1.4260512930
C       -3.8826361912   -4.5449380027    1.0391853978
C       -0.7858619581   -1.1768246091   -2.3193132192
C       -0.5692904552   -0.8152108761   -0.0641594629
C       -0.4176778202   -2.3395464692   -0.3145534476
N       -0.2230463166   -2.3093755765   -1.7520274370
N       -0.5650602859   -3.4935498641    2.3358155630
O       -0.3970446263   -2.3695296602    2.8199569488
O       -1.0187481640   -0.9722690476   -3.4880128826
O        0.1315474278   -4.4830507008    2.5607713999
O       -1.0556151160   -0.2855386556   -1.3130908942
F       -4.9656462700   -5.2247905543    1.4727450917
H       -2.7299810997   -2.9558470419   -1.7131658781
H       -4.7307882236   -4.1891525178   -0.9011252483
H       -2.8221500217   -4.8050426916    2.9044658150
H       -1.2856511643   -0.5779803276    0.7203344240
H        0.3992911888   -0.3601200671    0.1606165485
H        0.4791289103   -2.7107009168    0.1877665727
H       -0.2013319237   -3.1514986411   -2.3128901292
23   
torsion grid (90,)
C       -2.7389359979   -3.3772934190   -0.7133184486
C       -3.8683084162   -4.0607566023   -0.2577926705
C       -2.8089817620   -4.3586595887    1.9144820672
C       -1.6268048249   -3.1690377216    0.1131316669
C       -1.7098461887   -3.6716407738    1.4141128861
C       -3.8826708012   -4.5401287229    1.0484042823
C       -0.7906932655   -1.2076663083   -2.3405426828
C       -0.5574579383   -0.8476671917   -0.0875805109
C       -0.4105491267   -2.3724660001   -0.3399950363
N       -0.2229483826   -2.3399012843   -1.7780749269
N       -0.5606839015   -3.4674240014    2.3242187962
O       -0.5654800412   -2.4397010028    3.0064692519
O       -1.0315865596   -1.0012163431   -3.5071187005
O        0.3176216413   -4.3309229521    2.3287862573
O       -1.0545568461   -0.3172003615   -1.3309998530
F       -4.9686211141   -5.2059140595    1.4961970493
H       -2.7289035497   -2.9983857239   -1.7304275606
H       -4.7289500996   -4.2219438485   -0.8990400607
H       -2.8371696662   -4.7419748726    2.9292283695
H       -1.2674567555   -0.6091694297    0.7033945959
H        0.4136079265   -0.3930836165    0.1283164238
H        0.4867307467   -2.7487709872    0.1574419518
H       -0.2030090127   -3.1816995052   -2.3395036078
23   
torsion grid (105,)
C       -2.7074680118   -3.3923469893   -0.7428158005
C       -3.7401015985   -4.2143449600   -0.2872157116
C       -2.5763509651   -4.4912766063    1.8303567103
C       -1.5863832663   -3.1108142435    0.0497507942
C       -1.5628606415   -3.6845523615    1.3252161173
C       -3.6550897412   -4.7529797152    0.9927398553
C       -1.1149467272   -0.9324696128   -2.3114773909
C       -0.7864162026   -0.6790226951   -0.0566141427
C       -0.4882883685   -2.1602623550   -0.4125448684
N       -0.3910928474   -2.0209888677   -1.8535557915
N       -0.4244343666   -3.3963296061    2.2253856495
O       -0.6298482237   -2.6115942183    3.1536675183
O       -1.4454216795   -0.6853943762   -3.4478307740
O        0.6506106717   -3.9455115405    1.9723156311
O       -1.4188646664   -0.1399825775   -1.2326686822
F       -4.6483260050   -5.5486637764    1.4437399372
H       -2.7822303543   -2.9598743519   -1.7353873789
H       -4.6035095475   -4.4338683882   -0.9070887911
H       -2.5328759112   -4.9059415985    2.8320236908
H       -1.4666156174   -0.5657888719    0.7873980252
H        0.1406296120   -0.1291352786    0.1299448726
H        0.4698995828   -2.4644123550    0.0119467425
H       -0.3007749573   -2.8184789771   -2.4699069412
23   
torsion grid (120,)
C       -2.6464549815   -3.4636050664   -0.7717493857
C       -3.7199342046   -4.2504485720   -0.3487871114
C       -2.6952709188   -4.4499533318    1.8442480784
C       -1.5655358955   -3.1696998565    0.0695367125
C       -1.6308869446   -3.6881442485    1.3704258930
C       -3.7229401639   -4.7368303580    0.9539817100
C       -1.0361058547   -0.9239339188   -2.2126122317
C       -0.6342410049   -0.7832313985    0.0397185441
C       -0.4242876417   -2.2614949921   -0.3832845714
N       -0.3573685309   -2.0638744820   -1.8183856045
N       -0.5665329236   -3.3788084704    2.3490666080
O       -0.9060066345   -2.7944280357    3.3800438866
O       -1.3774271013   -0.6115384945   -3.3296608893
O        0.5884132608   -3.7112726427    2.0641003437
O       -1.2772545829   -0.1671790968   -1.0926340054
F       -4.7557777745   -5.4971043321    1.3759981475
H       -2.6593530183   -3.0636619383   -1.7802329060
H       -4.5485388385   -4.4788042905   -1.0115877698
H       -2.7246899182   -4.8083980628    2.8675561307
H       -1.2811124088   -0.6662489527    0.9094404576
H        0.3253319238   -0.2881110432    0.2147593942
H        0.5223858134   -2.6372638729    0.0038461770
H       -0.2873563575   -2.8289635975   -2.4763381880
23   
torsion grid (135,)
C       -2.6442896654   -3.5702670978   -0.8156229799
C       -3.6851024334   -4.3688578943   -0.3365780014
C       -2.6357402884   -4.3979319965    1.8502286647
C       -1.5631838464   -3.1897026255   -0.0107687010
C       -1.6004016587   -3.6264250335    1.3247853406
C       -3.6580609766   -4.7783765398    0.9915619140
C       -1.2221925803   -0.8448947624   -2.2382204019
C       -0.5550415781   -0.8307683977   -0.0452079534
C       -0.4505621376   -2.2913789845   -0.5563334730
N       -0.5456601620   -2.0232299306   -1.9778914104
N       -0.5573463045   -3.2179104447    2.2882949552
O       -0.9335885692   -2.8497345079    3.4029382597
O       -1.6710854824   -0.4622935527   -3.2936245621
O        0.6218863262   -3.2568218034    1.9178578066
O       -1.3082516463   -0.1415433564   -1.0623689577
F       -4.6574650242   -5.5503271375    1.4689986893
H       -2.6867667466   -3.2254091404   -1.8429745838
H       -4.5114685623   -4.6628072871   -0.9760673037
H       -2.6445671102   -4.6874565222    2.8949672789
H       -1.0898262568   -0.7318564129    0.8995195338
H        0.4352560720   -0.3740761718    0.0350671672
H        0.5189265665   -2.7138863652   -0.3002663059
H       -0.5455848594   -2.7460500467   -2.6847947191
23   
torsion grid (150,)
C       -2.6368998841   -3.5509552230   -0.7930934520
C       -3.6678164860   -4.3634604771   -0.3183273153
C       -2.6240302392   -4.3759360550    1.8682570881
C       -1.5636898318   -3.1486914627    0.0130203244
C       -1.5990983212   -3.5788429726    1.3544924125
C       -3.6371810807   -4.7738975815    1.0093735929
C       -1.2571691625   -0.7736025128   -2.2084120968
C       -0.5290317276   -0.7959807706   -0.0335147798
C       -0.4614507076   -2.2525813792   -0.5619077295
N       -0.6045259065   -1.9698508734   -1.9766467090
N       -0.5775299270   -3.1552791326    2.3349729629
O       -0.9249419644   -3.0669395268    3.5143370451
O       -1.7211343813   -0.3681306889   -3.2489037141
O        0.5612231032   -2.9013035354    1.9216920450
O       -1.2974231006   -0.0825017885   -1.0234393494
F       -4.6235375671   -5.5644472142    1.4833327510
H       -2.6804824122   -3.2105043741   -1.8214766620
H       -4.4873471907   -4.6693145790   -0.9611270222
H       -2.6285932331   -4.6679807203    2.9116174532
H       -1.0376706091   -0.6969195936    0.9247260374
H        0.4701169745   -0.3567443864    0.0271059766
H        0.5112871144   -2.6880163316   -0.3467192603
H       -0.6112042795   -2.6772849614   -2.6984362896
23   
torsion grid (165,)
C       -2.6646353801   -3.5091476263   -0.7810643218
C       -3.6925371877   -4.3282254596   -0.3136263212
C       -2.6158691346   -4.4036317126    1.8543426926
C       -1.5806746444   -3.1221109380    0.0197643003
C       -1.5999741060   -3.5838756287    1.3537049368
C       -3.6429259849   -4.7746931097    1.0018991154
C       -1.2518636274   -0.8020798584   -2.2800442698
C       -0.5675774196   -0.7589772853   -0.0891044887
C       -0.4829539736   -2.2306618128   -0.5730267972
N       -0.6174001813   -1.9960474741   -1.9973159677
N       -0.5740094507   -3.1831315527    2.3411432405
O       -0.8106060026   -3.3926128250    3.5324142977
O       -1.6942354697   -0.4273131943   -3.3416695674
O        0.4585204254   -2.6391017211    1.9271425040
O       -1.3079501561   -0.0727856105   -1.1197278855
F       -4.6235987715   -5.5765877420    1.4684070953
H       -2.7154335388   -3.1521207837   -1.8032168665
H       -4.5214452044   -4.6151108466   -0.9532333165
H       -2.6020395975   -4.7288082310    2.8872515714
H       -1.1033862871   -0.6370692659    0.8508384541
H        0.4285220841   -0.3163874498   -0.0103411769
H        0.4928713377   -2.6484854315   -0.3385317182
H       -0.6029409460   -2.7234022880   -2.6987794885
23   
torsion grid (180,)
C       -2.6797436797   -3.5134418388   -0.7580342037
C       -3.7169165689   -4.3094386933   -0.2725422974
C       -2.5943623848   -4.4233446013    1.8716122051
C       -1.5768384144   -3.1440348699    0.0258177727
C       -1.5764502590   -3.6140134048    1.3571393633
C       -3.6489697071   -4.7626990602    1.0401590338
C       -1.2014620488   -0.9920344997   -2.4214555909
C       -0.5911590876   -0.7807178811   -0.2172765970
C       -0.4713540812   -2.2815975444   -0.5918263148
N       -0.5599024070   -2.1538811646   -2.0341942390
N       -0.5264208342   -3.2323806478    2.3259468121
O       -0.6007647523   -3.6873383034    3.4688942250
O       -1.6223806568   -0.7069608709   -3.5193490492
O        0.3581845403   -2.4502148899    1.9512761655
O       -1.2942168695   -0.1769535844   -1.3237637113
F       -4.6386971179   -5.5428135383    1.5238649351
H       -2.7378989181   -3.1618516981   -1.7818032238
H       -4.5641954449   -4.5765258573   -0.8965178494
H       -2.5594514532   -4.7639574705    2.8989273147
H       -1.1667387484   -0.6032225109    0.6892137165
H        0.3961076236   -0.3209263767   -0.1279874942
H        0.5030518681   -2.6650925418   -0.2981905584
H       -0.5578320718   -2.9400964171   -2.6698153255
