23   
torsion grid (-165,)
C        5.7053741704    1.7471714459    0.0694659158
C        4.7730964732    2.0764696400   -0.9236465841
C        5.4778304321    0.6267137702    0.8715817862
C        3.6365500744    1.2927411565   -1.1114240266
C        4.3374758933   -0.1592113321    0.6797431330
C        3.3976877430    0.1482552099   -0.3220300127
C        1.3209985028   -0.6271338039   -1.5343993461
C        2.1983121025   -0.6870355474   -0.5130621211
C        0.1514594866   -1.5649909376   -1.3606236455
C        1.7411799943   -1.7138815341    0.5142640424
C        0.6148676448   -2.4911624438   -0.2090491588
H        6.5898735185    2.3610696651    0.2183645253
H        4.9307283027    2.9535583042   -1.5466261851
H        6.1881462984    0.3623037504    1.6510705876
H        2.9177668346    1.5784555651   -1.8737359977
H        4.1817945688   -1.0241109729    1.3168326591
H        1.4010563738    0.0429881563   -2.3861974999
H       -0.0914571487   -2.1190991561   -2.2749655103
H       -0.7528377973   -0.9992521998   -1.0916533842
H        1.3783818743   -1.2008059692    1.4155737667
H        2.5459906755   -2.3818382649    0.8385858031
H       -0.2000297752   -2.7764266830    0.4621364701
H        1.0271630471   -3.4128790371   -0.6320143277
23   
torsion grid (-150,)
C        5.6870253896    1.7329933959    0.0569672020
C        4.6748681466    2.1401590887   -0.8210002739
C        5.5444928394    0.5310107667    0.7561149526
C        3.5390813114    1.3507652564   -0.9997264296
C        4.4058623050   -0.2586231000    0.5749848731
C        3.3879428778    0.1268788066   -0.3171526690
C        1.3995054371   -0.7373905387   -1.6015313040
C        2.1913210935   -0.7122281319   -0.5124872548
C        0.1978913163   -1.6356852205   -1.4300830921
C        1.6315456304   -1.6215813828    0.5725222830
C        0.5520531952   -2.4529149294   -0.1620477123
H        6.5696722558    2.3507386545    0.2010098058
H        4.7663728364    3.0819466936   -1.3566489796
H        6.3205417974    0.2069576236    1.4451966856
H        2.7477986689    1.6924880178   -1.6610459067
H        4.3155983167   -1.1912920427    1.1239410484
H        1.5737766540   -0.1598326234   -2.5059289554
H        0.0121706171   -2.2732330922   -2.3022789936
H       -0.7110749505   -1.0328596033   -1.2867727044
H        1.2061302497   -1.0092710652    1.3795252699
H        2.3905557678   -2.2601843466    1.0359962055
H       -0.3183101613   -2.6645623030    0.4653970848
H        0.9803126507   -3.4147224475   -0.4623803925
23   
torsion grid (-135,)
C        5.6792187381    1.7364970243    0.0652938037
C        4.6037461068    2.2005835528   -0.7001753911
C        5.6129199860    0.4645731830    0.6442364267
C        3.4763876400    1.3981972617   -0.8885838120
C        4.4837698474   -0.3355427379    0.4552679276
C        3.4032641549    0.1089208245   -0.3287416361
C        1.4856034905   -0.8412520039   -1.6531134471
C        2.2086371282   -0.7352393603   -0.5238184340
C        0.2550187077   -1.7001022915   -1.4759997709
C        1.5561093075   -1.5166429216    0.6072325664
C        0.5094276913   -2.3987387454   -0.1151792326
H        6.5548367236    2.3624868390    0.2167671318
H        4.6381825864    3.1943625174   -1.1400258980
H        6.4413796280    0.0960517645    1.2442165453
H        2.6331712392    1.7738473127   -1.4619628097
H        4.4476384171   -1.3235409449    0.9064655104
H        1.7332760566   -0.3473256233   -2.5897741976
H        0.1108677291   -2.4154962862   -2.2938766180
H       -0.6476499128   -1.0720344922   -1.4493149126
H        1.0908114356   -0.8138132199    1.3121192785
H        2.2683722704   -2.1110001194    1.1895123605
H       -0.4043650468   -2.5360982441    0.4698114310
H        0.9357811335   -3.3911798926   -0.2943719669
23   
torsion grid (-120,)
C        5.6712471331    1.7376851941    0.0862230857
C        4.5416629325    2.2484082549   -0.5609166703
C        5.6718303325    0.4093440366    0.5279877916
C        3.4240570079    1.4345547700   -0.7686018178
C        4.5531668432   -0.4007903102    0.3218369658
C        3.4191398457    0.0935790727   -0.3472133151
C        1.5645867756   -0.9555287822   -1.6937126413
C        2.2247502195   -0.7562102162   -0.5408784134
C        0.3075337373   -1.7750526667   -1.5076744978
C        1.4884622885   -1.4034341451    0.6223559039
C        0.4660095432   -2.3365778588   -0.0702496631
H        6.5401812117    2.3695525040    0.2514340661
H        4.5266670615    3.2828798668   -0.8954495135
H        6.5452302074    0.0054300716    1.0340874389
H        2.5398598517    1.8366400571   -1.2562209527
H        4.5631590281   -1.4322612422    0.6658700660
H        1.8742434902   -0.5502025582   -2.6542159140
H        0.1976496738   -2.5676409641   -2.2567696698
H       -0.5818180494   -1.1344543539   -1.5993541076
H        0.9996766347   -0.6217544975    1.2204703235
H        2.1553358809   -1.9420632876    1.3048879804
H       -0.4837216053   -2.3985180586    0.4685725956
H        0.8793452711   -3.3491176892   -0.1228058081
23   
torsion grid (-105,)
C        5.6707483088    1.7316002585    0.1018793106
C        4.4895029951    2.2820783445   -0.4047785272
C        5.7271878179    0.3627918768    0.3893033805
C        3.3731128076    1.4688611234   -0.6258680090
C        4.6099023072   -0.4469118894    0.1708463421
C        3.4231690329    0.0917078400   -0.3552664097
C        1.6464873976   -1.0804183754   -1.7147405560
C        2.2263402748   -0.7610094634   -0.5477674385
C        0.3677894922   -1.8671216926   -1.5277315069
C        1.4050409248   -1.2720192985    0.6261764220
C        0.4216836209   -2.2706978208   -0.0306980144
H        6.5388020212    2.3628073667    0.2743179277
H        4.4350221950    3.3455606508   -0.6244601243
H        6.6420175237   -0.0729660585    0.7834539482
H        2.4527627455    1.8978030068   -1.0140503710
H        4.6583546480   -1.5101322132    0.3945310726
H        2.0246253000   -0.7787088727   -2.6887289895
H        0.2970762595   -2.7352304148   -2.1931100668
H       -0.5037576544   -1.2335956481   -1.7478874777
H        0.8861073689   -0.4277451810    1.1017731648
H        2.0227351480   -1.7332389021    1.4052584596
H       -0.5632581019   -2.2721444184    0.4447710859
H        0.8278126343   -3.2840176532    0.0540411758
23   
torsion grid (-90,)
C        5.6808468729    1.7161055173    0.1018636499
C        4.4532533896    2.3017445694   -0.2246237879
C        5.7764449724    0.3242973757    0.2074643816
C        3.3289194205    1.4996506316   -0.4439797728
C        4.6504778973   -0.4752143836   -0.0106727744
C        3.4149771626    0.1014555335   -0.3468767512
C        1.7443329607   -1.2105852822   -1.7187760755
C        2.2139751126   -0.7465142831   -0.5519985490
C        0.4510069894   -1.9791049132   -1.5554151873
C        1.2995221696   -1.1329833825    0.6001639500
C        0.3672530506   -2.2015878682   -0.0220662391
H        6.5557503689    2.3386029288    0.2713388256
H        4.3713657768    3.3825135436   -0.3109541003
H        6.7278520624   -0.1386084144    0.4579555283
H        2.3760349996    1.9557076164   -0.7014553234
H        4.7267082314   -1.5569603104    0.0693455724
H        2.2089942215   -1.0220958226   -2.6837067652
H        0.4397758739   -2.9209649180   -2.1159609253
H       -0.3951360009   -1.3842857829   -1.9284672260
H        0.7465284339   -0.2483434349    0.9470894300
H        1.8580118015   -1.5068874643    1.4658572287
H       -0.6563170531   -2.1453138571    0.3591415145
H        0.7512044674   -3.1982619028    0.2186364925
23   
torsion grid (-75,)
C        5.6966693224    1.7033207869    0.0857434778
C        4.4375549471    2.3013625843   -0.0397247702
C        5.8102266178    0.3118237069    0.0069635802
C        3.3015381152    1.5124582120   -0.2394702624
C        4.6721047507   -0.4761173056   -0.1938766881
C        3.4037729057    0.1132659427   -0.3173725006
C        1.8508341155   -1.3403482239   -1.6775810621
C        2.1991339645   -0.7226868243   -0.5393256016
C        0.5443088050   -2.0925849079   -1.5484230122
C        1.1828763199   -0.9847802195    0.5616841784
C        0.3133229013   -2.1298822384   -0.0146277614
H        6.5805998831    2.3168096672    0.2405665987
H        4.3418585378    3.3832267879    0.0111989775
H        6.7849028109   -0.1610334067    0.0999204235
H        2.3264210861    1.9821181017   -0.3454047793
H        4.7605657656   -1.5577263077   -0.2569525645
H        2.4098584511   -1.2693294765   -2.6076224137
H        0.5844657534   -3.0952403989   -1.9896297939
H       -0.2600720935   -1.5545539387   -2.0701809465
H        0.5943267649   -0.0770283010    0.7582065390
H        1.6646262279   -1.2516267479    1.5089263542
H       -0.7420826767   -2.0393354877    0.2576613503
H        0.6714135278   -3.0863606469    0.3798045546
23   
torsion grid (-60,)
C        5.6977485614    1.6951908294    0.0728219850
C        4.4237701217    2.2722375878    0.1320206300
C        5.8219399813    0.3241757933   -0.1731903866
C        3.2858888419    1.4831943687   -0.0508619720
C        4.6820349504   -0.4642405493   -0.3578130645
C        3.3980340730    0.1026655767   -0.2941190898
C        1.9385940656   -1.4655606973   -1.6184040677
C        2.1942394144   -0.7234052711   -0.5290749991
C        0.6147343237   -2.1905569922   -1.5237309813
C        1.0815265913   -0.8594187660    0.4997004848
C        0.2537280979   -2.0607241879   -0.0206770083
H        6.5835779884    2.3085543565    0.2167187900
H        4.3179640296    3.3390625972    0.3132934927
H        6.8073707824   -0.1329623717   -0.2198797891
H        2.3000476535    1.9406384372   -0.0136162358
H        4.7788844798   -1.5307778807   -0.5434697602
H        2.5759263484   -1.4992650406   -2.4989119555
H        0.6773156320   -3.2352323506   -1.8501133882
H       -0.1342184394   -1.7075795696   -2.1677352033
H        0.4824991803    0.0616015095    0.5421347905
H        1.4752796933   -1.0200976589    1.5092067510
H       -0.8200839008   -1.9414418969    0.1494477766
H        0.5689895885   -2.9683632695    0.5041615026
23   
torsion grid (-45,)
C        5.6996177268    1.6951760177    0.0727794023
C        4.4228711256    2.2282309117    0.2822866534
C        5.8319122669    0.3584002013   -0.3189661209
C        3.2903239974    1.4312891850    0.1007393897
C        4.6984137893   -0.4372329820   -0.5012789643
C        3.4092273274    0.0860422416   -0.2939580013
C        2.0089483741   -1.5813578928   -1.5583288413
C        2.2093257305   -0.7377694139   -0.5305901344
C        0.6654117125   -2.2703666899   -1.4846284428
C        1.0170349439   -0.7455791072    0.4153741183
C        0.2165429349   -1.9946154060   -0.0266202001
H        6.5817115341    2.3135976088    0.2176270617
H        4.3097566304    3.2670536897    0.5826424796
H        6.8202471709   -0.0667167283   -0.4761717248
H        2.3026521909    1.8574716358    0.2582289600
H        4.8051994973   -1.4796994752   -0.7895333967
H        2.6993397945   -1.7124621596   -2.3881324553
H        0.7212719877   -3.3413119172   -1.7121402924
H       -0.0307100681   -1.8326040332   -2.2149546124
H        0.4255608208    0.1735573623    0.2963199101
H        1.3239710735   -0.7859801040    1.4660093650
H       -0.8650710285   -1.8628748069    0.0689757992
H        0.5010165396   -2.8442098873    0.6028055241
23   
torsion grid (-30,)
C        5.6935756571    1.7016089149    0.0774156134
C        4.4218807883    2.1704995847    0.4213554217
C        5.8316760146    0.4121399778   -0.4509976570
C        3.2988537250    1.3603012414    0.2353978307
C        4.7092515518   -0.3952874194   -0.6368577296
C        3.4209519272    0.0658961724   -0.3031923354
C        2.0603777574   -1.6929562561   -1.4920072093
C        2.2279704975   -0.7665867413   -0.5296379825
C        0.6990966971   -2.3456812644   -1.4374203194
C        0.9755230264   -0.6562889322    0.3280683068
C        0.1705308291   -1.9247147948   -0.0428448488
H        6.5683333435    2.3293129740    0.2264603875
H        4.3038435503    3.1694260413    0.8340713255
H        6.8176413891    0.0331252814   -0.7088364155
H        2.3161701635    1.7395165613    0.5026094945
H        4.8282725285   -1.4034583394   -1.0245956981
H        2.7868767708   -1.9121319442   -2.2705580735
H        0.7419834654   -3.4342407801   -1.5610562609
H        0.0591781575   -1.9657734707   -2.2474300603
H        0.4194064346    0.2578395802    0.0758382951
H        1.2068613558   -0.5983113413    1.3972436154
H       -0.9108452321   -1.7612655191   -0.0284722285
H        0.3930291225   -2.7164665630    0.6799633288
23   
torsion grid (-15,)
C        5.6911784503    1.7112596988    0.0875424182
C        4.4354736795    2.1065968630    0.5556359752
C        5.8211980456    0.4820688637   -0.5726808221
C        3.3210449853    1.2850898483    0.3627963094
C        4.7089079469   -0.3353194974   -0.7649212907
C        3.4325932802    0.0533148860   -0.3090339091
C        2.1091140062   -1.7972804231   -1.4056037019
C        2.2461640153   -0.7920410515   -0.5187857466
C        0.7304122653   -2.4122548823   -1.3797720574
C        0.9427884275   -0.5740790746    0.2370284449
C        0.1262471673   -1.8517180167   -0.0684138209
H        6.5598179489    2.3464768598    0.2403260930
H        4.3218914222    3.0559969910    1.0731556497
H        6.7957506926    0.1582609767   -0.9299301308
H        2.3522595021    1.6106224794    0.7301908946
H        4.8316763218   -1.2950199012   -1.2590280239
H        2.8703575912   -2.1068745560   -2.1169754975
H        0.7504115996   -3.5083112732   -1.4010165636
H        0.1546923256   -2.0949932082   -2.2618984475
H        0.4358911524    0.3264522443   -0.1377274270
H        1.0982650694   -0.4242998585    1.3111124346
H       -0.9485566486   -1.6623871317   -0.1401311385
H        0.2791828016   -2.5776498702    0.7368446808
23   
torsion grid (0,)
C        5.6945769719    1.7176145246    0.0951995139
C        4.4698319634    2.0332734571    0.6871280050
C        5.7947949699    0.5656772085   -0.6971628071
C        3.3582666163    1.2080699732    0.4905653489
C        4.6857571221   -0.2539620557   -0.8930130267
C        3.4395224747    0.0501590264   -0.3058374598
C        2.1588832970   -1.8970173350   -1.2876411613
C        2.2580626422   -0.8081436391   -0.4991279702
C        0.7670975017   -2.4808147242   -1.3071777154
C        0.9101784317   -0.4979627778    0.1382523761
C        0.0798102760   -1.7790351800   -0.1106041673
H        6.5607533483    2.3562265734    0.2476992776
H        4.3769914211    2.9231992219    1.3047761860
H        6.7434448772    0.3071954720   -1.1613611956
H        2.4154276538    1.4747034683    0.9577265103
H        4.7893672775   -1.1439599271   -1.5066691932
H        2.9612988198   -2.3016449753   -1.8985275189
H        0.7593008321   -3.5735467967   -1.2179389360
H        0.2697286140   -2.2436599181   -2.2594421177
H        0.4618921098    0.3809327289   -0.3460104920
H        0.9879435023   -0.2634487666    1.2053748355
H       -0.9792032611   -1.5710883791   -0.2875832898
H        0.1442690058   -2.4258108841    0.7704260259
23   
torsion grid (15,)
C        5.7194821240    1.7204014621    0.1014659630
C        4.5452883508    1.9493298635    0.8223421466
C        5.7608101776    0.6667584489   -0.8214914592
C        3.4279258662    1.1318849353    0.6278453198
C        4.6454682350   -0.1454682540   -1.0153011498
C        3.4543761194    0.0641957008   -0.2890753055
C        2.2186340996   -1.9669012668   -1.1449811039
C        2.2742198699   -0.7995505526   -0.4736594321
C        0.8234192842   -2.5377039120   -1.2163073477
C        0.8901455804   -0.4153843779    0.0318861761
C        0.0473867787   -1.6975427910   -0.1717785865
H        6.5889289002    2.3557124493    0.2491381141
H        4.4965758200    2.7657248126    1.5387197814
H        6.6652050067    0.4846420274   -1.3969242907
H        2.5265530029    1.3282473256    1.1998772578
H        4.6936168716   -0.9444124224   -1.7493101306
H        3.0649981743   -2.4499334239   -1.6260212012
H        0.7899491634   -3.6121226445   -1.0006718284
H        0.4127405872   -2.4121282179   -2.2290769023
H        0.5044576415    0.4319713656   -0.5516027607
H        0.8903648124   -0.0975304908    1.0797410432
H       -0.9804873742   -1.4827620831   -0.4771736263
H       -0.0014428115   -2.2509482453    0.7714713985
23   
torsion grid (30,)
C        5.7224290744    1.7031387281    0.1019061188
C        4.6069479230    1.8431609371    0.9325523289
C        5.6966796810    0.7520015340   -0.9255892149
C        3.4808003538    1.0381484675    0.7413306537
C        4.5716462701   -0.0501534414   -1.1153537069
C        3.4431232772    0.0702795592   -0.2797043783
C        2.2508992679   -2.0245273580   -1.0154969517
C        2.2651539787   -0.7983995145   -0.4587913973
C        0.8587408099   -2.5973624340   -1.1332724542
C        0.8517034016   -0.3605041939   -0.1013693261
C        0.0174179721   -1.6578309662   -0.2326558529
H        6.5974006566    2.3316178330    0.2464138777
H        4.6130120667    2.5796734940    1.7323084676
H        6.5527559449    0.6440789867   -1.5871873000
H        2.6267334041    1.1572296268    1.4014756109
H        4.5546165963   -0.7650793458   -1.9332162467
H        3.1323041461   -2.5516303622   -1.3720356979
H        0.7995393618   -3.6454368817   -0.8174339129
H        0.5221517653   -2.5690599200   -2.1801736680
H        0.5212909928    0.4181995604   -0.8024612335
H        0.7739620317    0.0728798890    0.9010903153
H       -0.9863189103   -1.4765141562   -0.6271623333
H       -0.0975009912   -2.1145915164    0.7556650346
23   
torsion grid (45,)
C        5.7212083263    1.6977092920    0.0980446551
C        4.6711461829    1.7385311248    1.0216886125
C        5.6314499204    0.8491940644   -1.0110316674
C        3.5426807246    0.9364983180    0.8367964363
C        4.5025218941    0.0475124148   -1.1927167150
C        3.4396122716    0.0748100571   -0.2706977487
C        2.2749536841   -2.0720251805   -0.8861115525
C        2.2654590388   -0.8032196505   -0.4396167307
C        0.8855352733   -2.6448138703   -1.0437477634
C        0.8376132732   -0.3191487528   -0.2340059870
C       -0.0010526815   -1.6189898218   -0.2915063040
H        6.5980790390    2.3245307392    0.2383364760
H        4.7332005583    2.3922529502    1.8882674186
H        6.4383497732    0.8183296854   -1.7392020674
H        2.7381941224    0.9691631818    1.5667830532
H        4.4282373816   -0.5946611123   -2.0662375568
H        3.1756745445   -2.6285296163   -1.1338103385
H        0.7910580216   -3.6584223877   -0.6372818422
H        0.6187364771   -2.7105479018   -2.1088913484
H        0.5728106956    0.3810952846   -1.0382623074
H        0.6970153543    0.2244104497    0.7065493030
H       -0.9764807543   -1.4730160501   -0.7640466677
H       -0.1810606137   -1.9778177134    0.7271635641
23   
torsion grid (60,)
C        5.7159557675    1.7036778261    0.0932762801
C        4.7435185465    1.6290755289    1.0974406246
C        5.5510167824    0.9641997175   -1.0821660019
C        3.6157126473    0.8238213094    0.9242841125
C        4.4227675417    0.1563328934   -1.2524178265
C        3.4370437349    0.0768425218   -0.2538318663
C        2.2871581135   -2.1094690407   -0.7464440291
C        2.2632702721   -0.8078746484   -0.4153211376
C        0.9017904782   -2.6804243530   -0.9497986161
C        0.8345861445   -0.2877180858   -0.3678702973
C       -0.0203433788   -1.5780185542   -0.3657223047
H        6.5926537911    2.3324254429    0.2263162201
H        4.8680506726    2.1939438701    2.0180647436
H        6.2999978407    1.0182559208   -1.8685102704
H        2.8701918422    0.7622465650    1.7134964186
H        4.2916065803   -0.4121430126   -2.1694525308
H        3.1967704554   -2.6891357694   -0.8851922253
H        0.7607751373   -3.6489220120   -0.4562894748
H        0.7115852288   -2.8457055210   -2.0204041678
H        0.6462735061    0.3343484647   -1.2540150448
H        0.6396067456    0.3487933729    0.5026933062
H       -0.9555375228   -1.4678921459   -0.9219652030
H       -0.2813456082   -1.8362920067    0.6658103941
23   
torsion grid (75,)
C        5.7041263698    1.7181195472    0.0911848554
C        4.8261634128    1.5047004322    1.1602355048
C        5.4551376645    1.1033553607   -1.1397944779
C        3.7061975994    0.6858451108    0.9954008026
C        4.3350334318    0.2813077649   -1.3013316120
C        3.4445116228    0.0644123312   -0.2375126285
C        2.2785599591   -2.1475701399   -0.5883169979
C        2.2654155584   -0.8187336384   -0.4041563347
C        0.8969773106   -2.7109783413   -0.8395352467
C        0.8530747037   -0.2675307548   -0.5254937942
C       -0.0347716572   -1.5334003774   -0.4501283530
H        6.5753692111    2.3556881408    0.2181480343
H        5.0177670154    1.9715893401    2.1232897577
H        6.1337467311    1.2617452047   -1.9744337793
H        3.0308905239    0.5155969321    1.8306710703
H        4.1427238126   -0.1985149225   -2.2576371358
H        3.1808772992   -2.7543842984   -0.5968987713
H        0.6908979166   -3.6175690437   -0.2590010346
H        0.7855792312   -2.9865389602   -1.8983484521
H        0.7489376630    0.2580041202   -1.4853683381
H        0.6168005705    0.4649988300    0.2547978907
H       -0.9238091320   -1.4674509234   -1.0836826367
H       -0.3766599618   -1.6719706232    0.5808376692
23   
torsion grid (90,)
C        5.6951084086    1.7371069065    0.0996723256
C        4.9262029501    1.3574038782    1.2050414827
C        5.3507269773    1.2717332220   -1.1737110301
C        3.8195286231    0.5196817977    1.0366588555
C        4.2444116291    0.4326967628   -1.3396435429
C        3.4681410516    0.0426152432   -0.2364539396
C        2.2629397030   -2.1722714431   -0.4183736138
C        2.2821852480   -0.8317891544   -0.4169079219
C        0.8848131071   -2.7288285539   -0.7028370101
C        0.9008263043   -0.2623439006   -0.7007625874
C       -0.0334033095   -1.4878142820   -0.5461487344
H        6.5559181458    2.3880760303    0.2298311193
H        5.1895714455    1.7116095583    2.1987050467
H        5.9454205627    1.5589426009   -2.0374541739
H        3.2246605501    0.2228313936    1.8970794915
H        3.9811116554    0.0677131105   -2.3294867925
H        3.1418641077   -2.7969402956   -0.2776005141
H        0.6052945039   -3.5444299498   -0.0260236073
H        0.8433963254   -3.1409809755   -1.7213351474
H        0.8731338377    0.1572778567   -1.7165883647
H        0.6434253253    0.5579230130   -0.0210003561
H       -0.8624462358   -1.4815449043   -1.2594728841
H       -0.4673219767   -1.4851847585    0.4590297203
23   
torsion grid (105,)
C        5.6811703155    1.7465543653    0.1178457380
C        5.0202046986    1.2016615137    1.2230361751
C        5.2386224366    1.4336572732   -1.1725531973
C        3.9263504864    0.3491942743    1.0401664727
C        4.1451414890    0.5826242235   -1.3529777771
C        3.4830163046    0.0170012485   -0.2500042413
C        2.2308878762   -2.1766710810   -0.2557074685
C        2.2960659452   -0.8501956989   -0.4424733501
C        0.8576513930   -2.7332376094   -0.5625356135
C        0.9529050159   -0.2895330956   -0.8851063337
C       -0.0275444420   -1.4607722887   -0.6293059626
H        6.5307623056    2.4097437629    0.2594807080
H        5.3535643024    1.4430174153    2.2294275617
H        5.7467879646    1.8517522883   -2.0380900882
H        3.4098555700   -0.0693678301    1.9002267584
H        3.8070289784    0.3408213424   -2.3578917963
H        3.0771905091   -2.7971224324    0.0297090075
H        0.5080222951   -3.4463166645    0.1929913454
H        0.8693803442   -3.2739989404   -1.5197261023
H        0.9914267730   -0.0069672474   -1.9470084158
H        0.6853864484    0.6182048531   -0.3329687285
H       -0.8138551038   -1.5293494158   -1.3864455540
H       -0.5177928968   -1.3133112914    0.3384992910
23   
torsion grid (120,)
C        5.6799475307    1.7420960669    0.1304716619
C        5.1200357216    1.0593835983    1.2148598067
C        5.1341578987    1.5720843397   -1.1472980018
C        4.0265374169    0.2095544300    1.0225664640
C        4.0408438306    0.7240790885   -1.3372648006
C        3.4840045679    0.0134044839   -0.2588624432
C        2.1938773653   -2.1459494533   -0.1128315124
C        2.3008397989   -0.8513619382   -0.4529805747
C        0.8324128757   -2.7165627075   -0.4408635671
C        0.9990088552   -0.3301333807   -1.0435282453
C       -0.0197181836   -1.4492669316   -0.7140188683
H        6.5279134355    2.4056730897    0.2794892972
H        5.5281401549    1.1959667425    2.2133762475
H        5.5607796412    2.1017399846   -1.9955991272
H        3.5808961131   -0.3076429866    1.8682833279
H        3.6227326937    0.5979631685   -2.3331413240
H        3.0071215466   -2.7405018111    0.2969687427
H        0.4214127746   -3.3298960585    0.3695046136
H        0.8921246995   -3.3680660247   -1.3245653109
H        1.1020450559   -0.1780324302   -2.1274366921
H        0.7170890216    0.6396704086   -0.6192970309
H       -0.7581907775   -1.5969849046   -1.5071608422
H       -0.5664253069   -1.1809593930    0.1957806590
23   
torsion grid (135,)
C        5.6821045558    1.7326010073    0.1337101388
C        5.2143515155    0.9409522398    1.1884128549
C        5.0342546898    1.6801382475   -1.1055064590
C        4.1142732220    0.1004074826    1.0029616259
C        3.9337740514    0.8399520180   -1.2892169307
C        3.4691889933    0.0196370965   -0.2447254184
C        2.1448296259   -2.1067012449    0.0172791899
C        2.2924869072   -0.8486046119   -0.4338550142
C        0.8010289691   -2.6957564039   -0.3458906748
C        1.0423503253   -0.3878493432   -1.1694176701
C       -0.0141120672   -1.4516051159   -0.7836395907
H        6.5346485281    2.3911108432    0.2788105287
H        5.6987836560    0.9888804684    2.1606695113
H        5.3859086612    2.2967449609   -1.9290758883
H        3.7374516187   -0.4936021430    1.8313909574
H        3.4378414815    0.8080174703   -2.2561295832
H        2.9203594688   -2.6691306298    0.5318810540
H        0.3320493227   -3.2342795065    0.4859268990
H        0.9086376524   -3.4213594113   -1.1653005234
H        1.2181823772   -0.3713216461   -2.2545197212
H        0.7478435739    0.6279945816   -0.8847732285
H       -0.7164907266   -1.6663229484   -1.5941481478
H       -0.5972493326   -1.0864226373    0.0680650685
23   
torsion grid (150,)
C        5.7018756930    1.7435362101    0.0607469035
C        5.0032931947    1.7645661848   -1.1527484292
C        5.2397459807    0.9349699995    1.1038080840
C        3.8531999158    0.9920263579   -1.3164093018
C        4.0883663246    0.1608476815    0.9387479679
C        3.3636544686    0.1897130030   -0.2672797404
C        1.0926444554   -0.3562877759   -1.2169941451
C        2.1527469533   -0.6308471263   -0.4338709393
C        0.0199398526   -1.4165323074   -1.1326353932
C        1.9406134009   -1.9410679945    0.3108803922
C        0.7501364131   -2.5912684596   -0.4337762768
H        6.6011612901    2.3409928545    0.1863942484
H        5.3648570776    2.3744511493   -1.9770946156
H        5.7786596040    0.9048503383    2.0476034441
H        3.3345130378    0.9923616712   -2.2713091815
H        3.7412239475   -0.4622879389    1.7585306666
H        0.9758996381    0.5533055632   -1.8010248921
H       -0.3843031358   -1.6946118743   -2.1131122553
H       -0.8308330372   -1.0541018501   -0.5370046750
H        1.6946306960   -1.7460936447    1.3644231359
H        2.8370257161   -2.5707068988    0.3087238053
H        0.0963414190   -3.1649976968    0.2293210318
H        1.1335176294   -3.2797983916   -1.1938665864
23   
torsion grid (165,)
C        5.6986656677    1.7480162466    0.0734402140
C        4.9336926362    1.8746782967   -1.0938317057
C        5.3082485819    0.8265952724    1.0484417774
C        3.7936907348    1.0947471597   -1.2794187460
C        4.1651504711    0.0441626410    0.8607572524
C        3.3793796437    0.1687438894   -0.3003234719
C        1.1530125347   -0.4333202627   -1.3305657443
C        2.1709605798   -0.6530667118   -0.4754844570
C        0.0512802129   -1.4574932847   -1.2009179514
C        1.8821384106   -1.8757545958    0.3841813655
C        0.7126346928   -2.5710899331   -0.3515092361
H        6.5896130604    2.3543781539    0.2146771331
H        5.2349465276    2.5789501281   -1.8654738296
H        5.8947151829    0.7145704559    1.9570610265
H        3.2257110200    1.1908249570   -2.2005175503
H        3.8753399968   -0.6640245645    1.6314481874
H        1.0794333112    0.4166717248   -2.0039729889
H       -0.3076338008   -1.8232258531   -2.1703162621
H       -0.8202778923   -1.0192753078   -0.6924933607
H        1.5908012577   -1.5630820809    1.3970000140
H        2.7542011748   -2.5295330417    0.4949266885
H        0.0123278521   -3.0607791336    0.3310919953
H        1.1139224125   -3.3410643199   -1.0185337079
23   
torsion grid (180,)
C        5.6910844757    1.7445344780    0.0784904764
C        4.8484056032    1.9793040712   -1.0167765294
C        5.3795008066    0.7157681465    0.9698830515
C        3.7135834736    1.1960436455   -1.2138383976
C        4.2406453581   -0.0703556784    0.7693956235
C        3.3841005036    0.1506363344   -0.3256559078
C        1.2231365507   -0.5314212700   -1.4483282854
C        2.1803601270   -0.6781001174   -0.5108312400
C        0.0874556223   -1.5117781666   -1.2864853470
C        1.8152734371   -1.8086275457    0.4413894420
C        0.6519038075   -2.5376819074   -0.2726573061
H        6.5762474561    2.3564671193    0.2313740676
H        5.0798566858    2.7771443050   -1.7182806838
H        6.0227102283    0.5230498269    1.8249926524
H        3.0777997847    1.3948295895   -2.0715588870
H        4.0153415625   -0.8614236935    1.4777410551
H        1.2148967211    0.2356093365   -2.2180225707
H       -0.2131659766   -1.9761533993   -2.2332178364
H       -0.8044443885   -0.9996356254   -0.8961730540
H        1.5063558038   -1.3957999681    1.4118188187
H        2.6564074451   -2.4817070821    0.6403867041
H       -0.1057045463   -2.9071575080    0.4241026420
H        1.0461225587   -3.4027828015   -0.8153197783
