25   
torsion grid (-165,)
C       -0.5655439681    0.2732875741    0.7146818243
C        0.5960046822   -0.7178681794   -0.7416837525
C       -0.2895198872   -1.2193990881    0.4375017071
C       -0.5713679618    2.1227947696   -1.7105185476
C        0.9620208759    3.0074813578    0.0773468900
C        1.8923152932    1.6905042018   -1.8601192070
C        0.7092038080    1.8418623943   -0.8908746928
N        0.6385850830    0.6084812972   -0.0845369027
N       -1.4517206911   -2.0679574963    0.2351182394
H       -1.5167100485    0.5808039351    0.2522425224
H       -0.5474848343    0.6192945097    1.7535692384
H        1.5735438509   -1.1855432247   -0.9066000058
H        0.0247940467   -0.7388339043   -1.6866344230
H        0.3267718512   -1.6548543597    1.2279178466
H       -0.8394333162    1.2701054333   -2.3441088722
H       -1.4262558662    2.3510326515   -1.0664597279
H       -0.4182686353    2.9849638037   -2.3679385329
H        1.8948668888    2.8486743012    0.6264472410
H        0.1487919861    3.0895242265    0.8069425437
H        1.0261525916    3.9595254215   -0.4609184214
H        2.8049848405    1.4344125666   -1.3122061930
H        1.7050262643    0.9060499652   -2.6003839181
H        2.0652535764    2.6260411596   -2.4016145172
H       -1.1637558243   -3.0236092284    0.0314013053
H       -1.9877739490   -1.7426785328   -0.5684175276
25   
torsion grid (-150,)
C       -0.7416123840    0.2545907396    0.6121643853
C        0.6514520167   -0.6995649018   -0.6350384861
C       -0.3278734618   -1.2208605622    0.4547002176
C       -0.6380778626    2.2247364376   -1.5985039438
C        1.0680104218    3.0203677781    0.0702316721
C        1.7606459617    1.6191799020   -1.9113607831
C        0.6681386165    1.8624563994   -0.8574530058
N        0.5462902107    0.6461953943   -0.0186735684
N       -1.3898398361   -2.1693024348    0.1645745511
H       -1.6282572280    0.4676045410   -0.0042805347
H       -0.9076711510    0.6458049798    1.6218074981
H        1.6652275307   -1.1126557917   -0.6867206585
H        0.1790271162   -0.7785000047   -1.6306203830
H        0.2200293149   -1.5664494885    1.3347299390
H       -1.0052572310    1.3843695417   -2.1989129849
H       -1.4317335083    2.5215334439   -0.9057388656
H       -0.4642271396    3.0650944803   -2.2786511321
H        2.0333197926    2.8123124252    0.5411388850
H        0.3259116056    3.1465578065    0.8662394244
H        1.1385235821    3.9659439180   -0.4795128009
H        2.6880980299    1.2780057274   -1.4390828019
H        1.4542960056    0.8722670736   -2.6491784437
H        1.9772691301    2.5487003948   -2.4473398403
H       -1.0091546703   -3.1076708483    0.0547667909
H       -1.8444070081   -1.9290942360   -0.7154376830
25   
torsion grid (-135,)
C       -0.9025358141    0.2148158590    0.4479526428
C        0.7499833128   -0.6952513605   -0.4802033488
C       -0.3487396329   -1.2228629185    0.4871464122
C       -0.6887003857    2.3769580081   -1.4847734224
C        1.2064980176    2.9810525427    0.0493569265
C        1.6142200562    1.5696888347   -1.9962205884
C        0.6287376764    1.8788888186   -0.8572630580
N        0.4305050969    0.6723406669   -0.0114743766
N       -1.2684015609   -2.2867047072    0.1208444849
H       -1.6973531630    0.2959975844   -0.3106121772
H       -1.2587499063    0.6609118307    1.3834596227
H        1.7883766655   -1.0135119662   -0.3293129288
H        0.4594388529   -0.9016653386   -1.5255084982
H        0.0753055983   -1.4481405165    1.4686488867
H       -1.1383523002    1.6183398210   -2.1348869397
H       -1.4228846904    2.6493294600   -0.7197337835
H       -0.4998042340    3.2665647858   -2.0946201380
H        2.1693684225    2.6638482478    0.4613281085
H        0.5309490602    3.1722065166    0.8898886271
H        1.3492157548    3.9208467835   -0.4974084687
H        2.5496584382    1.1521300604   -1.6093079539
H        1.1946785856    0.8639308417   -2.7187581017
H        1.8588089888    2.4910856448   -2.5342400606
H       -0.7991260509   -3.1901332985    0.1545344835
H       -1.5921012357   -2.1567069959   -0.8367614151
25   
torsion grid (-120,)
C       -1.0546102468    0.1424007241    0.2605472008
C        0.8281776538   -0.6707891333   -0.2692706522
C       -0.3972604460   -1.2325506101    0.5148116648
C       -0.7326709802    2.5216201150   -1.3465007588
C        1.3327240767    2.8811046245    0.0345083033
C        1.4481162414    1.5177973579   -2.0687194945
C        0.5724797308    1.8743371932   -0.8546597693
N        0.2884863655    0.6775239845   -0.0293476207
N       -1.1400843233   -2.3986034099    0.0671319607
H       -1.7320480114    0.0927601895   -0.6092526184
H       -1.5859895428    0.6174740233    1.0932159444
H        1.8334657675   -0.8551221520    0.1313695621
H        0.7990616883   -1.0016386181   -1.3225624058
H       -0.1556636767   -1.3572055764    1.5731232629
H       -1.2760730292    1.8669709933   -2.0354481472
H       -1.3958539821    2.7641803485   -0.5099902234
H       -0.5106134148    3.4535197681   -1.8763325733
H        2.2595620652    2.4311278597    0.4049244752
H        0.7236196726    3.1511069154    0.9030485712
H        1.5857525704    3.7973189864   -0.5130501148
H        2.3832569315    1.0405997120   -1.7583330380
H        0.9306564080    0.8408772200   -2.7567115287
H        1.7056454798    2.4254815612   -2.6240436623
H       -0.6108464987   -3.2494471219    0.2507143473
H       -1.2882514709   -2.3542590683   -0.9402537741
25   
torsion grid (-105,)
C       -1.1425296158    0.1076876989    0.0735872303
C        0.8505259582   -0.6030449061   -0.1035778918
C       -0.4515997358   -1.2054912727    0.5118757917
C       -0.7356139677    2.6477021556   -1.2466372182
C        1.4506197166    2.7944021885   -0.0225923774
C        1.3067990502    1.4803806844   -2.1495692082
C        0.5417182500    1.8820588977   -0.8731678196
N        0.1951100372    0.7097829699   -0.0479674049
N       -1.0420246907   -2.4404789842    0.0241178069
H       -1.6772508393   -0.0381114433   -0.8823230337
H       -1.8201889102    0.5926508196    0.7848151943
H        1.7864045161   -0.6887135006    0.4642956616
H        1.0164040749   -0.9937238121   -1.1234486015
H       -0.3766599645   -1.2607035818    1.6005786905
H       -1.3794529412    2.0645482319   -1.9123092725
H       -1.3111824759    2.9088118728   -0.3528995372
H       -0.4755003453    3.5777136724   -1.7617249350
H        2.3385051843    2.2443786724    0.3074126738
H        0.9160411844    3.1320676182    0.8705066524
H        1.7839558096    3.6735704744   -0.5873339089
H        2.2453101315    0.9721585886   -1.9061598818
H        0.7105923564    0.8107964436   -2.7802786362
H        1.5526750262    2.3678017915   -2.7421470856
H       -0.4987820219   -3.2428536690    0.3384927778
H       -1.0298724970   -2.4562189555   -0.9948740699
25   
torsion grid (-90,)
C       -1.1709390326    0.0722059846   -0.0769086068
C        0.8589637971   -0.5316000060    0.0468490995
C       -0.4842193339   -1.1927536882    0.4910907522
C       -0.7317230062    2.7376211393   -1.1390831679
C        1.5338152389    2.7302729921   -0.0593600714
C        1.1776810423    1.4566879815   -2.1857235134
C        0.5174870043    1.8916442150   -0.8602701803
N        0.1368183615    0.7470945183   -0.0171358407
N       -0.9359846568   -2.4683653363   -0.0371586062
H       -1.5455338507   -0.1206100099   -1.0990558852
H       -1.9711787664    0.5344041883    0.5106128529
H        1.7117677514   -0.5568322547    0.7372989487
H        1.1801793136   -0.9275760157   -0.9326866724
H       -0.5604550454   -1.2190301314    1.5808002732
H       -1.4548083263    2.2022932684   -1.7624357607
H       -1.2247307375    3.0176654056   -0.2026564892
H       -0.4527186347    3.6564472146   -1.6641999767
H        2.4012400284    2.1205811398    0.2166054833
H        1.0759044932    3.0997663516    0.8629560361
H        1.8944053357    3.5853220099   -0.6430591571
H        2.1204827789    0.9307171231   -2.0058963531
H        0.5209715164    0.7919105748   -2.7597244705
H        1.3979245385    2.3285586159   -2.8108275894
H       -0.4040053924   -3.2330839469    0.3750150275
H       -0.7786850354   -2.5070364779   -1.0433622297
25   
torsion grid (-75,)
C       -1.1850160928    0.0383274566   -0.1963594942
C        0.8375652210   -0.4553645754    0.2031479088
C       -0.5159141076   -1.1857761944    0.4710499599
C       -0.7209148761    2.8133773955   -1.0627561165
C        1.5984322167    2.6597571804   -0.1115223614
C        1.0350456127    1.4093778268   -2.2116984550
C        0.4875720101    1.8912074751   -0.8498750451
N        0.0663177574    0.7882981319    0.0268592911
N       -0.8254994607   -2.4854564445   -0.0994636389
H       -1.4085107969   -0.1738844246   -1.2573846619
H       -2.0780597891    0.4614525171    0.2750538248
H        1.5883445207   -0.4294161696    1.0024713255
H        1.3082743291   -0.8378055994   -0.7187801820
H       -0.7360566287   -1.2132737076    1.5410387305
H       -1.5095321051    2.3184821621   -1.6388767436
H       -1.1402703529    3.1202383184   -0.0992995870
H       -0.4210988989    3.7121121059   -1.6109445096
H        2.4434200322    1.9993077724    0.1127705553
H        1.2198789939    3.0575406669    0.8347219548
H        1.9746624600    3.4901974707   -0.7193337400
H        1.9618750771    0.8398353925   -2.0920508977
H        0.3090125644    0.7741580129   -2.7326035976
H        1.2542139028    2.2627645067   -2.8621225066
H       -0.3150858735   -3.2195828566    0.3886379525
H       -0.5321566793   -2.5193936966   -1.0749261580
25   
torsion grid (-60,)
C       -1.1835504503    0.0071820599   -0.2764390162
C        0.8023016494   -0.3411686139    0.3757919483
C       -0.5219854076   -1.1569574122    0.4951368842
C       -0.6849843503    2.9220073729   -0.9936661079
C        1.6589602520    2.5842172734   -0.1509354771
C        0.8898140732    1.3944221001   -2.2279055582
C        0.4596271892    1.9091298162   -0.8354801900
N       -0.0167677941    0.8494423939    0.0672299753
N       -0.6731541367   -2.4824711764   -0.0812858002
H       -1.2718023565   -0.2368373195   -1.3484554112
H       -2.1489576709    0.3798346666    0.0814937611
H        1.4412900350   -0.2458620222    1.2617706012
H        1.4117622886   -0.7092322817   -0.4671768871
H       -0.8692125015   -1.1867703362    1.5308525242
H       -1.5505839440    2.4682111036   -1.4882262299
H       -1.0052038458    3.2877170171   -0.0131999175
H       -0.3650970708    3.7762821640   -1.5993012528
H        2.4832654566    1.8759267533   -0.0126686652
H        1.3686623548    2.9649147383    0.8330300608
H        2.0333093897    3.4179094499   -0.7543765288
H        1.7312766424    0.6974455341   -2.1588686149
H        0.0674379497    0.8870476012   -2.7431800834
H        1.2075335797    2.2295091558   -2.8609582621
H       -0.1766638620   -3.1731639722    0.4793263732
H       -0.2621897858   -2.5078757402   -1.0136682245
25   
torsion grid (-45,)
C       -1.1640387348   -0.0836228040   -0.4264632028
C        0.7409072781   -0.2750975113    0.4628063803
C       -0.5324684371   -1.1724040724    0.4665704184
C       -0.6456761107    3.0103960416   -0.9333802667
C        1.6893657528    2.4678070764   -0.1824024965
C        0.7518599789    1.4176087916   -2.2751907417
C        0.4235698068    1.9072749355   -0.8471148753
N       -0.1142108758    0.8564281508    0.0367564631
N       -0.5351781966   -2.5263446856   -0.0612241782
H       -1.0856564039   -0.3642577253   -1.4886934791
H       -2.1931475334    0.2260876065   -0.2160707824
H        1.2813687554   -0.1191689119    1.4036545496
H        1.4535373244   -0.6207527876   -0.3067287875
H       -0.9970113871   -1.1829911555    1.4556641787
H       -1.5778326255    2.6168034082   -1.3535216798
H       -0.8638665374    3.4059257620    0.0630544584
H       -0.3110357654    3.8331395827   -1.5747050901
H        2.4911139464    1.7223599719   -0.1527961511
H        1.4721770914    2.7785630543    0.8444008032
H        2.0612415210    3.3354329254   -0.7367638178
H        1.4400912195    0.5649292302   -2.2635178642
H       -0.1498996788    1.1207303456   -2.8190568785
H        1.2314996166    2.2177641813   -2.8485152685
H       -0.0727852228   -3.1620382761    0.5866884568
H       -0.0124924730   -2.5629373764   -0.9354638781
25   
torsion grid (-30,)
C       -1.1107279443   -0.1746117230   -0.5582190699
C        0.6733825103   -0.2100436547    0.5493886292
C       -0.5459751545   -1.1721855715    0.4712871007
C       -0.5923136801    3.0901499758   -0.8616558282
C        1.7258681463    2.3627824224   -0.2441587730
C        0.6146219016    1.4693384829   -2.3317902305
C        0.3995031515    1.9096142810   -0.8691692497
N       -0.1927384521    0.8583003593   -0.0096609129
N       -0.4268024691   -2.5553201625    0.0418062497
H       -0.8623675328   -0.5020943004   -1.5792164167
H       -2.1763837047    0.0748170921   -0.5136139242
H        1.1179753671    0.0124921860    1.5260881470
H        1.4673843778   -0.5517572708   -0.1385604719
H       -1.1233225660   -1.1419989984    1.3985945004
H       -1.5753418383    2.7673115759   -1.2218230184
H       -0.7169243888    3.4738912308    0.1551527778
H       -0.2470858510    3.9053438205   -1.5079647501
H        2.4951806976    1.5867600260   -0.3072873140
H        1.5827012429    2.6212386357    0.8099426056
H        2.1030626394    3.2488694969   -0.7643597342
H        1.2293078639    0.5636060855   -2.3986916808
H       -0.3356104861    1.2750779406   -2.8376051315
H        1.1304564570    2.2578500460   -2.8896415535
H       -0.0224518532   -3.1247883409    0.7832702282
H        0.2011352765   -2.6214937760   -0.7582560006
25   
torsion grid (-15,)
C       -1.0116466929   -0.2882069827   -0.7224424019
C        0.5634767897   -0.1522702298    0.6593223360
C       -0.5842072808   -1.1825205768    0.4569638423
C       -0.5300973863    3.1468469981   -0.7512671399
C        1.7702643706    2.2416645987   -0.3471666912
C        0.4762256225    1.5699815247   -2.4052324020
C        0.3796598990    1.9089383687   -0.9058362366
N       -0.2484157553    0.8248443377   -0.1050236350
N       -0.3363313591   -2.5828258228    0.1583407966
H       -0.5792597066   -0.6673095210   -1.6618008554
H       -2.0804802789   -0.1001173731   -0.8743360418
H        0.8316033098    0.1541869637    1.6772213340
H        1.4727497353   -0.4980126941    0.1363886295
H       -1.3083208556   -1.1204275026    1.2729027321
H       -1.5477205086    2.9127962130   -1.0817567671
H       -0.5822677161    3.4475195361    0.2994672112
H       -0.1640727916    3.9942797151   -1.3432883656
H        2.4874860378    1.4327441532   -0.5162568922
H        1.7215776609    2.4403451244    0.7281952974
H        2.1607069085    3.1396303141   -0.8362911049
H        1.0934586661    0.6820189792   -2.5850370343
H       -0.5124384267    1.3919319728   -2.8389989497
H        0.9325392195    2.4042651683   -2.9480277722
H       -0.0379854789   -3.0783061855    0.9967907314
H        0.4186164970   -2.6687127139   -0.5208911056
25   
torsion grid (0,)
C        0.9521853949   -0.6005336621   -0.0637373244
C       -1.0919151952   -0.1657454730   -0.4023794243
C       -0.3374491153   -1.4357258751    0.0972786031
C        0.7966603560    1.8888757777   -2.6998212677
C       -0.6151688761    2.6658784369   -0.7741055659
C        1.8043857825    2.1376727464   -0.4125252565
C        0.5379190269    1.7344006306   -1.1870123009
N        0.1933210993    0.3151347939   -0.9359349446
N       -0.5742026907   -2.0177805445    1.4076043235
H        1.2581800939   -0.1703169300    0.9052649216
H        1.8217594709   -1.0840977537   -0.5236801713
H       -1.8933543160   -0.2910292373   -1.1419680719
H       -1.4847837622    0.4121351413    0.4529059344
H       -0.3801277096   -2.2303411194   -0.6514794444
H        1.6155301777    1.2320963198   -3.0104660684
H       -0.0947180959    1.5995694101   -3.2658418375
H        1.0577883387    2.9207837338   -2.9649489925
H       -0.7971232446    2.6307906365    0.3050202187
H       -1.5453701362    2.4004558771   -1.2868932421
H       -0.3727441194    3.7002186626   -1.0385334520
H        1.6458361281    2.1022311987    0.6701362580
H        2.6466996609    1.4822811479   -0.6565032040
H        2.0920937529    3.1608656479   -0.6748183326
H       -1.4602747868   -2.5202549374    1.4186746883
H       -0.6423837365   -1.2828506629    2.1104280592
25   
torsion grid (15,)
C        0.9532043717   -0.5027584987    0.1287472962
C       -1.0347237805   -0.2389053446   -0.5727091013
C       -0.2889104430   -1.4254838821    0.1152406361
C        0.6403297784    1.9083158269   -2.7093244080
C       -0.5241120637    2.6712217205   -0.6142843883
C        1.9145658093    2.1354059496   -0.5461136022
C        0.5703452057    1.7425068461   -1.1796040254
N        0.2831895488    0.3267427771   -0.8848577599
N       -0.7061092850   -1.9649489111    1.3985306936
H        1.0703048401   -0.0272177431    1.1192435225
H        1.9150419996   -0.9348583873   -0.1689166852
H       -1.6740849535   -0.4552888269   -1.4388921271
H       -1.6212126663    0.3351520989    0.1669011627
H       -0.1503444425   -2.2542929684   -0.5831882021
H        1.4485901928    1.2944214786   -3.1183809930
H       -0.2969338480    1.5781033317   -3.1699928768
H        0.8121097981    2.9532313678   -2.9944298750
H       -0.6138949058    2.5632361646    0.4724711210
H       -1.5012180629    2.4553280145   -1.0591225032
H       -0.2859104104    3.7183049743   -0.8291831316
H        1.8707724437    2.1030070543    0.5465080960
H        2.7179431764    1.4696304498   -0.8781833166
H        2.1822720679    3.1548351887   -0.8413305979
H       -1.5473232392   -2.5292622175    1.2905053141
H       -0.9391733905   -1.2065797077    2.0383056165
25   
torsion grid (30,)
C        0.9205470097   -0.4200231003    0.2661253955
C       -0.9651040011   -0.3170771261   -0.7022991036
C       -0.2542743230   -1.4201083436    0.1447033838
C        0.5194927897    1.9215730892   -2.6959563852
C       -0.4597369050    2.6399574322   -0.4897485579
C        1.9778063101    2.1141067378   -0.6454045346
C        0.5865576538    1.7296003651   -1.1718214451
N        0.3528330010    0.3066386077   -0.8807318578
N       -0.8079885798   -1.9231777389    1.3899312703
H        0.8667722899    0.1195163631    1.2297656265
H        1.9388050775   -0.8001081401    0.1318648916
H       -1.4763946213   -0.6128318556   -1.6274871924
H       -1.6669330295    0.2615911011   -0.0757784628
H        0.0236774659   -2.2701071831   -0.4831337703
H        1.2979320930    1.3293718908   -3.1862343218
H       -0.4502969431    1.5885340400   -3.0818124578
H        0.6491291911    2.9746342899   -2.9713421862
H       -0.4818186759    2.4714457107    0.5932070317
H       -1.4659222831    2.4594868418   -0.8821613650
H       -0.2230483962    3.6957307728   -0.6596296506
H        2.0260503908    2.0552500013    0.4458784504
H        2.7487647082    1.4563055849   -1.0604769114
H        2.2179642216    3.1413612262   -0.9369255811
H       -1.5919110961   -2.5467860345    1.2048349423
H       -1.1691377888   -1.1521628346    1.9501130330
25   
torsion grid (45,)
C        0.8822454783   -0.3547812191    0.3587293558
C       -0.8738393741   -0.3829606791   -0.8293818891
C       -0.2403721567   -1.4017435089    0.1697395221
C        0.4260394427    1.9345368757   -2.6752392965
C       -0.3739168059    2.5998869427   -0.3812593425
C        2.0500203100    2.0929149015   -0.7519115570
C        0.6201456612    1.7136727833   -1.1674484284
N        0.4405211136    0.2794474389   -0.8975840446
N       -0.9257544333   -1.8413422144    1.3728789944
H        0.6988632049    0.2481106407    1.2664210143
H        1.9197180574   -0.7044817139    0.3707836919
H       -1.2592730976   -0.7558031936   -1.7863778820
H       -1.6609466530    0.2098073423   -0.3322270450
H        0.1341065563   -2.2813744083   -0.3594885086
H        1.1645875337    1.3588003997   -3.2409877683
H       -0.5713982289    1.6073004826   -2.9891804104
H        0.5284202223    2.9940484682   -2.9349818779
H       -0.3222999634    2.3948054488    0.6941703517
H       -1.4058027238    2.4383977682   -0.7094500704
H       -0.1444805995    3.6606486331   -0.5280206384
H        2.1891225589    2.0068764287    0.3301893772
H        2.7797313270    1.4423810405   -1.2452463078
H        2.2656158564    3.1279323707   -1.0354730152
H       -1.6631803549   -2.5046295267    1.1405886712
H       -1.3740933079   -1.0488128927    1.8307247685
25   
torsion grid (60,)
C        0.8258200828   -0.2869232270    0.4572986814
C       -0.7624706522   -0.4372154067   -0.9375390947
C       -0.2373294138   -1.3767314970    0.1917433646
C        0.3163950040    1.9242956077   -2.6398133140
C       -0.2982039848    2.5850610208   -0.2910982673
C        2.1008786530    2.1180445390   -0.8768289643
C        0.6440807017    1.7142301962   -1.1534095041
N        0.5318099296    0.2730240838   -0.8798360083
N       -1.0602007902   -1.7662800507    1.3245028586
H        0.5211455360    0.3564858418    1.2999619608
H        1.8621674643   -0.6045639993    0.6123377970
H       -1.0069991422   -0.8749914535   -1.9127135915
H       -1.6250891298    0.1527080608   -0.5834364204
H        0.2205737636   -2.2746861753   -0.2303423296
H        0.9881632659    1.3271888795   -3.2639441735
H       -0.7131264763    1.6224372697   -2.8617814193
H        0.4221311311    2.9784792048   -2.9171411591
H       -0.1136649231    2.4412901064    0.7787216913
H       -1.3512682570    2.3602061937   -0.4890905318
H       -0.1433981564    3.6465888458   -0.5108499999
H        2.3531361362    1.9919905987    0.1814651008
H        2.7846760491    1.4997797390   -1.4667487037
H        2.2667435332    3.1687644003   -1.1362576538
H       -1.7485098990   -2.4621218585    1.0418882840
H       -1.5794556651   -0.9615958521    1.6733900158
25   
torsion grid (75,)
C        0.7361205906   -0.2364998867    0.5555762461
C       -0.6434266959   -0.4820415091   -1.0244654656
C       -0.2329407806   -1.3783103683    0.1820549141
C        0.2209768812    1.9000600047   -2.5851957524
C       -0.1987725813    2.5875377760   -0.2033446866
C        2.1506752831    2.1403618287   -1.0058955040
C        0.6780396708    1.7160332463   -1.1283032099
N        0.6154465309    0.2731894651   -0.8320385514
N       -1.1782440131   -1.7880990311    1.2068678632
H        0.2858787059    0.4166802850    1.3199141492
H        1.7516765103   -0.5010911895    0.8684736396
H       -0.7598034861   -0.9445741855   -2.0114468684
H       -1.5578621795    0.0893955459   -0.7867616159
H        0.3160414410   -2.2598916824   -0.1580260019
H        0.8030818712    1.2537456513   -3.2496031758
H       -0.8386601612    1.6519061240   -2.7078059890
H        0.3586381396    2.9388204586   -2.9021717314
H        0.1570202799    2.5687523928    0.8315078266
H       -1.2436837578    2.2586803191   -0.2113518972
H       -0.1803455346    3.6304338118   -0.5364709700
H        2.5240057155    1.9714731626    0.0104724152
H        2.7690018976    1.5580098267   -1.6950661436
H        2.2728715128    3.2049253310   -1.2336536947
H       -1.7891795048   -2.5231153485    0.8544117625
H       -1.7766159867   -1.0045657136    1.4654501770
25   
torsion grid (90,)
C        0.6035399535   -0.1724166241    0.6859350865
C       -0.5392624638   -0.5204885374   -1.0417776939
C       -0.2354531884   -1.3776440548    0.2199346119
C        0.1161351858    1.8841841891   -2.4874471775
C       -0.0900333362    2.6237198531   -0.0961556621
C        2.1777379419    2.1477890437   -1.1155591267
C        0.6977476155    1.7276870349   -1.0701048496
N        0.6659781335    0.2872526001   -0.7269717202
N       -1.2761686361   -1.8372401207    1.1240129007
H        0.0047254642    0.4759095665    1.3437958828
H        1.5725897641   -0.3625770476    1.1598317887
H       -0.5356684538   -0.9991183684   -2.0276101287
H       -1.4925120173    0.0214280836   -0.9081080813
H        0.4078624586   -2.2241676350   -0.0324923416
H        0.6121198324    1.1984526433   -3.1817881659
H       -0.9594016230    1.6830581931   -2.5142983454
H        0.2723373080    2.9060430812   -2.8472959330
H        0.3685053732    2.6480590607    0.8973723016
H       -1.1259563618    2.2828133006    0.0137090158
H       -0.1191362534    3.6523910344   -0.4701565772
H        2.6624277100    1.9711364481   -0.1484013854
H        2.7095086259    1.5613647067   -1.8697326352
H        2.2819158891    3.2125277060   -1.3539002550
H       -1.7860052580   -2.6174099114    0.7129669264
H       -1.9536941688   -1.0933577282    1.2864338724
25   
torsion grid (105,)
C        0.4098926828   -0.0591142917    0.8174212683
C       -0.3920998137   -0.5984291164   -1.0460438202
C       -0.2246913280   -1.3630461409    0.2980320716
C       -0.0041666356    1.8875375092   -2.3871528422
C        0.0805271630    2.7206907596   -0.0245007319
C        2.2007223846    2.1016923337   -1.2541003164
C        0.7163873635    1.7492677166   -1.0330242872
N        0.6704193334    0.3303659686   -0.5910429885
N       -1.3546935439   -1.8840858077    1.0484766300
H       -0.3498747593    0.5569304560    1.3238457036
H        1.2952849252   -0.1288656823    1.4593731409
H       -0.1866712375   -1.1221431634   -1.9869506915
H       -1.3998035489   -0.1494670317   -1.0967999244
H        0.5276681037   -2.1499391235    0.2047595530
H        0.3831482007    1.1641112355   -3.1115588043
H       -1.0847745475    1.7411345013   -2.2977399876
H        0.1621421994    2.8899594720   -2.7939921905
H        0.6000145708    2.7009448282    0.9389703908
H       -0.9749583051    2.4846437112    0.1514600618
H        0.1318462596    3.7449565401   -0.4081035693
H        2.7731162861    1.9507302009   -0.3320130040
H        2.6276914361    1.4498737640   -2.0214831973
H        2.3255124839    3.1456082680   -1.5658264670
H       -1.7133598974   -2.7306711708    0.6101191885
H       -2.1162535135   -1.2068183938    1.0519125506
25   
torsion grid (120,)
C        0.1571390777    0.0804442088    0.8844610198
C       -0.1758837401   -0.6887517321   -1.0602254931
C       -0.2203583951   -1.3240760696    0.3632025710
C       -0.1781557973    1.9405847013   -2.2822409863
C        0.3007371428    2.8299427433    0.0098179699
C        2.1849658949    2.0135868541   -1.4316662518
C        0.7117200670    1.7803854287   -1.0378270587
N        0.6099493661    0.4121208788   -0.4791898929
N       -1.4265931921   -1.9181088665    0.9142787294
H       -0.7431912012    0.6239649274    1.2189650493
H        0.9200750533    0.1478027468    1.6685418579
H        0.3172285500   -1.2470948853   -1.8665161431
H       -1.1918493319   -0.4090378848   -1.3911091725
H        0.6079863846   -2.0233676440    0.5002696843
H        0.0698349050    1.1986002258   -3.0482490980
H       -1.2399665037    1.8360152378   -2.0360079757
H       -0.0330476869    2.9330398394   -2.7211195075
H        0.8931261281    2.7313610334    0.9250888179
H       -0.7576647762    2.7444313521    0.2761302179
H        0.4652998490    3.8370853018   -0.3864784736
H        2.8300101056    1.9054849843   -0.5539652630
H        2.5005435926    1.2694641779   -2.1703025665
H        2.3389726798    3.0127338210   -1.8574239898
H       -1.6037071134   -2.8254490469    0.4864294056
H       -2.2331853766   -1.3307562345    0.7065504198
25   
torsion grid (135,)
C       -0.0393944879    0.1709345115    0.8897284855
C        0.0114133077   -0.7254265308   -1.0351955039
C       -0.2260201006   -1.2858968438    0.4024910638
C       -0.3101484793    1.9943016507   -2.1712151160
C        0.4715842772    2.8788587485    0.0420566744
C        2.1426237388    1.9489017385   -1.5652308640
C        0.7046221256    1.7997054727   -1.0295746560
N        0.5902244788    0.4684020403   -0.4067283679
N       -1.4647709284   -1.9416022675    0.7861413867
H       -1.0207269203    0.6516013894    1.0536925605
H        0.5862842730    0.3396648246    1.7730558184
H        0.6807493718   -1.2776199596   -1.7081482570
H       -0.9503549144   -0.5552149230   -1.5515188938
H        0.6123370139   -1.9116179359    0.7180140775
H       -0.1503062472    1.2693872060   -2.9762982397
H       -1.3387600230    1.8813626313   -1.8106218981
H       -0.2129527091    2.9962761459   -2.6022075404
H        1.1471044499    2.7396552607    0.8920476934
H       -0.5571922573    2.8673175655    0.4150967275
H        0.6635207055    3.8705968513   -0.3793637380
H        2.8581638420    1.8657372625   -0.7420429830
H        2.3677880080    1.1548450347   -2.2858937040
H        2.2889648556    2.9140047074   -2.0651780485
H       -1.5072933639   -2.8799910381    0.3919726494
H       -2.2627854724   -1.4283038982    0.4140670985
25   
torsion grid (150,)
C       -0.1914972774    0.2282935885    0.8659355627
C        0.1717759057   -0.7535650488   -0.9794815304
C       -0.2451521576   -1.2580573121    0.4384431167
C       -0.4074295577    2.0061519899   -2.0595002118
C        0.5925284723    2.8951830312    0.0668082124
C        2.0912145391    1.8991164339   -1.6617577454
C        0.7006321200    1.7998018904   -1.0082765430
N        0.6139871803    0.4928541707   -0.3381224180
N       -1.4952927877   -1.9572998800    0.6800936249
H       -1.2052862342    0.6690266977    0.8505951043
H        0.2856105922    0.4749701522    1.8202103015
H        0.9485583603   -1.3034892318   -1.5261607663
H       -0.7146841640   -0.6463129329   -1.6294299651
H        0.5670399995   -1.8238003617    0.9013185104
H       -0.3120033001    1.2966480083   -2.8880668509
H       -1.4008807481    1.8778772768   -1.6141973426
H       -0.3572677167    3.0157495094   -2.4809394217
H        1.3373192418    2.7386669040    0.8536400826
H       -0.3987865699    2.9148001257    0.5302798794
H        0.7718686807    3.8780407534   -0.3800459611
H        2.8695381972    1.8179993799   -0.8979248072
H        2.2405596311    1.0869764686   -2.3824883556
H        2.2139081905    2.8488459149   -2.1953340076
H       -1.4395466150   -2.9151313286    0.3378442971
H       -2.2541790736   -1.5051549557    0.1718173431
25   
torsion grid (165,)
C       -0.3049821034    0.2580678045    0.8356730161
C        0.3332544331   -0.7605994318   -0.9105033749
C       -0.2688363749   -1.2386063996    0.4480668583
C       -0.4762541487    2.0195648039   -1.9271656751
C        0.7132188122    2.9167870353    0.0985377251
C        2.0388609474    1.8511826504   -1.7359621841
C        0.7099674957    1.8042791150   -0.9636246967
N        0.6580416368    0.5182323928   -0.2523573798
N       -1.5268551999   -1.9604367958    0.5315198836
H       -1.3127605112    0.6774002729    0.6655687548
H        0.0307799096    0.5413290123    1.8385371721
H        1.1918811325   -1.3029585028   -1.3250237613
H       -0.4538154754   -0.6922728638   -1.6810318837
H        0.4800661847   -1.7741888751    1.0366341227
H       -0.4553849040    1.3076566984   -2.7586419859
H       -1.4346888559    1.9089314461   -1.4073046726
H       -0.4460844477    3.0268281695   -2.3558344981
H        1.5152672482    2.7482571490    0.8241477014
H       -0.2369546688    2.9598521308    0.6408046576
H        0.8726073707    3.8919497764   -0.3725003864
H        2.8799758517    1.7592901907   -1.0429513266
H        2.1016981851    1.0275417319   -2.4563356866
H        2.1381947816    2.7898370286   -2.2923830035
H       -1.4045636405   -2.9255222460    0.2292418935
H       -2.2146552511   -1.5399707758   -0.0920851413
25   
torsion grid (180,)
C       -0.4362495730    0.2780421421    0.7842731827
C        0.4732380802   -0.7450244689   -0.8328686327
C       -0.3001284422   -1.2211490217    0.4353101981
C       -0.5295914531    2.0586788831   -1.8223760241
C        0.8348207906    2.9635283233    0.0874614001
C        1.9704215769    1.7692356946   -1.8091705458
C        0.7100922001    1.8192684223   -0.9311395012
N        0.6598280659    0.5619251802   -0.1684934577
N       -1.5368238951   -1.9800417061    0.3526637343
H       -1.4226586162    0.6616007558    0.4742802132
H       -0.2465042676    0.5858322187    1.8178424877
H        1.4011410782   -1.2613802809   -1.1061311166
H       -0.1950559418   -0.7215035607   -1.7106297536
H        0.3712296657   -1.7258928953    1.1343671738
H       -0.6395727241    1.2768694582   -2.5810016140
H       -1.4510555171    2.0937698858   -1.2319640843
H       -0.4409171701    3.0149449295   -2.3484381777
H        1.7056951117    2.8046551128    0.7307971983
H       -0.0537699866    3.0248588149    0.7250355035
H        0.9461276783    3.9260798598   -0.4225356412
H        2.8575776149    1.6089345801   -1.1889912485
H        1.9116342783    0.9529988874   -2.5376029396
H        2.0943989130    2.7042890360   -2.3655246361
H       -1.3454233204   -2.9446670833    0.0867569254
H       -2.1403717502   -1.5885912732   -0.3693986715
