17   
torsion grid (-165,)
C        1.5807749660    0.5145030315    1.0696566166
C       -1.1153149030    1.1011553197    1.2180851811
C       -0.7327246502   -1.6029574931    1.1950924095
C        0.2397949098   -0.4122391129   -1.1659700684
N       -2.2401463540    1.4225348187   -2.4876360198
N       -1.0598861239   -0.5270221517   -1.7787682527
N       -1.6215095788    0.5469519664   -2.0903831649
S        0.0319636508    0.0304378628    0.7151947596
H        2.3458794639   -0.0218380588    0.5127163911
H        1.7532435238    0.7072439127    2.1235797161
H       -2.1289548174    0.7228769936    1.2814072962
H       -0.9182018477    2.1403617765    0.9869332149
H       -1.6259368851   -1.7810251164    0.5919976633
H        0.0189425959   -2.3724630266    1.0104922662
H       -0.9719194635   -1.5432663018    2.2572077775
H        0.7436033836   -1.3754848874   -1.2525577040
H        0.8579732996    0.3992794007   -1.5606078934
17   
torsion grid (-150,)
C        1.5169441353    0.6096154298    0.9894728254
C       -1.1996656511    1.0223838149    1.2038346495
C       -0.6615936322   -1.6521888007    1.2724930787
C        0.1745284786   -0.5095871032   -1.1747512865
N       -1.9419029374    1.7402238069   -2.4823390635
N       -1.1108946075   -0.3945271658   -1.8135822300
N       -1.4846438393    0.7641176811   -2.1014660464
S       -0.0057628904    0.0021297712    0.7052133434
H        2.2978702203    0.1083555194    0.4214295357
H        1.7138903162    0.8318398826    2.0337108640
H       -2.1896230990    0.5934143319    1.3067853688
H       -1.0651967944    2.0627735809    0.9367600018
H       -1.5513187546   -1.9071106811    0.6910585929
H        0.1312853293   -2.3845133231    1.1105412803
H       -0.8935591219   -1.5616712800    2.3340548104
H        0.4942085643   -1.5495495297   -1.2385754526
H        0.9330154536    0.1733429987   -1.5682000828
17   
torsion grid (-135,)
C        1.4299714625    0.6856537531    0.9017865454
C       -1.2906981200    0.9389156124    1.2092516446
C       -0.5810158003   -1.6934230771    1.3565188744
C        0.0917193304   -0.5898932173   -1.1908677360
N       -1.5774892044    2.0182036298   -2.4772810710
N       -1.1264769858   -0.2464385172   -1.8754716682
N       -1.2980598311    0.9661590625   -2.1281823471
S       -0.0591182776   -0.0273935026    0.6904719714
H        2.2281064742    0.2153299928    0.3329199829
H        1.6378626218    0.9702057614    1.9285504396
H       -2.2539078419    0.4590540513    1.3403119656
H       -1.2256674400    1.9746364690    0.9006227542
H       -1.5033069944   -2.0111018989    0.8629160375
H        0.2307803224   -2.3931750561    1.1494787789
H       -0.7286176460   -1.5793829790    2.4308946322
H        0.2087034036   -1.6719654290   -1.2381567188
H        0.9747956962   -0.0663357211   -1.5673238966
17   
torsion grid (-120,)
C        1.3246916893    0.7553486448    0.8099324353
C       -1.3873407456    0.8541039707    1.2362012294
C       -0.4897472042   -1.7230594927    1.4267046322
C       -0.0088342302   -0.6500027918   -1.2006621417
N       -1.1572251678    2.2301280275   -2.4787268939
N       -1.1124123030   -0.0934234043   -1.9371882208
N       -1.0681894757    1.1359663891   -2.1610407249
S       -0.1251358991   -0.0513173674    0.6762932709
H        2.1371713640    0.3108182293    0.2426896737
H        1.5358469687    1.1096725147    1.8138650154
H       -2.3196076794    0.3220603598    1.3903671090
H       -1.3971489059    1.8808182031    0.8911534989
H       -1.4491120422   -2.0952947233    1.0572725137
H        0.3232900012   -2.3920548678    1.1376790519
H       -0.5125723640   -1.5888739079    2.5086884571
H       -0.1082042405   -1.7344177591   -1.2329676406
H        0.9721114043   -0.3214230910   -1.5538210765
17   
torsion grid (-105,)
C        1.2038907062    0.8258762517    0.7257797217
C       -1.4802023442    0.7654144606    1.3098052635
C       -0.3929665510   -1.7460583112    1.4665766051
C       -0.1331966361   -0.6775587334   -1.1898618202
N       -0.6618289883    2.3417701084   -2.5582393192
N       -1.0849046571    0.0684559616   -1.9704315121
N       -0.7920233347    1.2583303445   -2.2206749881
S       -0.1989043434   -0.0657377899    0.6756774615
H        2.0212924974    0.4195989179    0.1391263251
H        1.4226212500    1.2439101275    1.7026544714
H       -2.3722334731    0.1744792055    1.4894305702
H       -1.5784847046    1.7794191980    0.9397187770
H       -1.3694831699   -2.1702800703    1.2175184525
H        0.4128437611   -2.3780359817    1.0868719936
H       -0.2935272643   -1.6020230531    2.5429387146
H       -0.4493495494   -1.7203690494   -1.2118443442
H        0.9040379711   -0.5681426528   -1.5186061832
17   
torsion grid (-90,)
C        1.0767480398    0.9052262346    0.6502758800
C       -1.5533284149    0.6790278126    1.4194899667
C       -0.2981848404   -1.7598024165    1.4711354176
C       -0.2760109912   -0.6719991325   -1.1656318196
N       -0.1374655950    2.3155517068   -2.6955638515
N       -1.0497896247    0.2330243444   -1.9745557068
N       -0.4998693522    1.3100231012   -2.2938797817
S       -0.2697375387   -0.0660068553    0.6877024322
H        1.8845386252    0.5448450869    0.0220990872
H        1.3157919164    1.3655982003    1.6025327017
H       -2.3908557220    0.0275182731    1.6469970364
H       -1.7480540059    1.6802427307    1.0522905590
H       -1.2768444172   -2.2268083761    1.3310823329
H        0.4862948776   -2.3529876012    0.9956813815
H       -0.0825645770   -1.6189172856    2.5307591497
H       -0.7913951736   -1.6328368094   -1.1783816945
H        0.7683079633   -0.7826500802   -1.4755929018
17   
torsion grid (-75,)
C        0.9491535028    0.9972051066    0.5966286084
C       -1.6071958036    0.6020544533    1.5301655484
C       -0.2164192719   -1.7613777369    1.4455677160
C       -0.4114748409   -0.6483208818   -1.1443756335
N        0.3426135027    2.1798128665   -2.7963962938
N       -0.9815171324    0.3713833699   -1.9840190009
N       -0.2215993048    1.2935060356   -2.3492312331
S       -0.3312163710   -0.0530963429    0.7033114502
H        1.7403536752    0.6850466819   -0.0780346261
H        1.2159565475    1.4663321658    1.5369516708
H       -2.3837942263   -0.1055350384    1.8024139536
H       -1.8914642648    1.5896851461    1.1852225177
H       -1.1743818285   -2.2805470453    1.3548487256
H        0.5692532484   -2.3010026500    0.9122336107
H        0.0547971943   -1.6282377515    2.4932936955
H       -1.0952957350   -1.4978423790   -1.1504290913
H        0.5998122781   -0.9600170658   -1.4317114291
17   
torsion grid (-60,)
C        1.1469358511    0.7696140136    0.8768243528
C       -1.5249447391    0.7816630980    0.2042360635
C       -0.0362206909   -1.6143221767    1.5159203386
C       -0.2206931459   -1.1783143709   -1.2504867126
N       -1.8562156667    0.8485474572   -3.3756717787
N       -0.0367733597   -0.3535971352   -2.4138863608
N       -1.0369369134    0.2571553337   -2.8428961840
S       -0.1534411135   -0.1306054097    0.3872660727
H        1.9958255328    0.1899174296    1.2246300095
H        1.3211567468    1.6553533475    0.2766032418
H       -2.3535973917    0.2712839406   -0.2770892492
H       -1.7289031125    1.4474831999    1.0349508371
H       -0.8528776356   -2.2921263358    1.2591844852
H        0.9313120268   -2.1095933614    1.3965407799
H       -0.1564282269   -1.2402377005    2.5330839948
H       -1.1650505112   -1.7366975337   -1.2405209962
H        0.6309094855   -1.8561691683   -1.1852555216
17   
torsion grid (-45,)
C        1.0849770313    0.8035274605    0.7619106684
C       -1.6126275067    0.6982599086    0.2629026402
C        0.0371864924   -1.6109641618    1.5491341697
C       -0.3379156558   -1.2247936623   -1.2362262270
N       -1.4684602672    1.0886117453   -3.3961610985
N        0.0515543383   -0.4405930171   -2.3779772224
N       -0.8012286969    0.3502244462   -2.8365910064
S       -0.2018474537   -0.1690539402    0.3900220167
H        1.9887162976    0.2750595953    1.0482490424
H        1.1646856649    1.6822450751    0.1322389834
H       -2.4520898704    0.1456107648   -0.1474776301
H       -1.7879717380    1.3782152033    1.0891914270
H       -0.7427467495   -2.3428926393    1.3276415948
H        1.0300402838   -2.0479212121    1.4121125908
H       -0.0794797696   -1.2215944598    2.5609696082
H       -1.3578511210   -1.6233790603   -1.2837375310
H        0.3891158564   -2.0312074181   -1.1327686533
17   
torsion grid (-30,)
C        1.0003367019    0.8438588418    0.6523633702
C       -1.7138504339    0.6246950709    0.3482866170
C        0.1171148910   -1.5979908934    1.5549214463
C       -0.4648932295   -1.2592905118   -1.2328169599
N       -0.9955666441    1.2603479781   -3.3901507143
N        0.1284774821   -0.5660711048   -2.3457893787
N       -0.5224441920    0.3898679795   -2.8226215772
S       -0.2637209976   -0.1913518753    0.3901083212
H        1.9499343892    0.3646422089    0.8679490414
H        0.9845165259    1.7231563508    0.0186917226
H       -2.5560853852    0.0331684920    0.0033016383
H       -1.8623532950    1.2908995549    1.1916695692
H       -0.6429588845   -2.3667782005    1.3984133864
H        1.1166313315   -1.9936634585    1.3552405262
H        0.0530169525   -1.1950667803    2.5661721000
H       -1.5317616163   -1.4754733412   -1.3465645298
H        0.1076635399   -2.1755956829   -1.0857412063
17   
torsion grid (-15,)
C        0.8963651200    0.8971485243    0.5503514608
C       -1.8272203257    0.5553985654    0.4711442215
C        0.2058042019   -1.5730563070    1.5164454458
C       -0.6016510529   -1.2730746613   -1.2316888468
N       -0.4516068652    1.3193368688   -3.3573166797
N        0.1874500927   -0.7230145722   -2.3020605703
N       -0.2086944918    0.3587440528   -2.7886936776
S       -0.3400589337   -0.1879169540    0.3891164617
H        1.8789347751    0.4646025107    0.7063502731
H        0.7933132479    1.7851567831   -0.0622203383
H       -2.6594955691   -0.0689347153    0.1613961495
H       -1.9531574423    1.1811378416    1.3487886839
H       -0.5589650332   -2.3511476268    1.4676193156
H        1.1757506446   -1.9609654800    1.1935665256
H        0.2675222841   -1.1565700909    2.5223744066
H       -1.6775366975   -1.2816480280   -1.4261643463
H       -0.2226968192   -2.2758420831   -1.0355751123
17   
torsion grid (0,)
C        0.7867456689    0.9612052239    0.4879684617
C       -1.9294827452    0.4914888626    0.6141629966
C        0.2899841547   -1.5466659296    1.4362202323
C       -0.7271311593   -1.2438929898   -1.2253501839
N        0.0589446388    1.2176362385   -3.3634275253
N        0.2394155249   -0.8711983393   -2.2239813405
N        0.0855525213    0.2496869278   -2.7561505693
S       -0.4174019788   -0.1632503471    0.3976580275
H        1.7915332714    0.5712466371    0.6044467068
H        0.6121182871    1.8674965048   -0.0787845693
H       -2.7453128663   -0.1559067092    0.3067757123
H       -2.0371971864    1.0585412163    1.5329600635
H       -0.4662222971   -2.3326252864    1.4850112318
H        1.2108504129   -1.9212772875    0.9811090819
H        0.4824607049   -1.1355350242    2.4278083372
H       -1.7623434657   -1.0423744401   -1.5138537649
H       -0.5684563502   -2.2952206296   -0.9891395255
17   
torsion grid (15,)
C        0.6781248605    1.0341119781    0.4658345543
C       -2.0110944148    0.4310220925    0.7449468606
C        0.3636605609   -1.5220127276    1.3321685024
C       -0.8315799173   -1.1804745113   -1.2128825933
N        0.5012134795    1.0094539570   -3.3752823465
N        0.2729604674   -1.0064745912   -2.1189940757
N        0.3343296591    0.0913849323   -2.7148394609
S       -0.4851765556   -0.1323745443    0.4137545163
H        1.7013487004    0.6854629388    0.5421604139
H        0.4406957947    1.9549135335   -0.0520220232
H       -2.8076741088   -0.2387485584    0.4324182162
H       -2.1029924651    0.9361019653    1.7007891215
H       -0.3717467927   -2.3179780898    1.4626627811
H        1.2204945128   -1.8754447881    0.7524378175
H        0.6780219071   -1.1256536795    2.2982376371
H       -1.7828858197   -0.7970862442   -1.5933027558
H       -0.8936427326   -2.2368490349   -0.9546537928
17   
torsion grid (30,)
C        0.5768877713    1.1074870690    0.4572952209
C       -2.0644921715    0.3686292242    0.8580566469
C        0.4248755921   -1.4964535080    1.2299637525
C       -0.9185694255   -1.0999415062   -1.2084120721
N        0.8808779842    0.7537442857   -3.3513763974
N        0.2673126530   -1.1329810142   -2.0251938219
N        0.5322724759   -0.0888860274   -2.6618097458
S       -0.5344448008   -0.1084599230    0.4283968171
H        1.6172020735    0.8051750893    0.4812245747
H        0.2727533965    2.0330909309   -0.0150092167
H       -2.8427622767   -0.3297377568    0.5599957370
H       -2.1302837255    0.8301679821    1.8377701366
H       -0.2735306261   -2.3211138170    1.3828931666
H        1.2460410488   -1.7986883388    0.5752570855
H        0.7947804856   -1.1224218762    2.1851115314
H       -1.7603269881   -0.5647817083   -1.6580052785
H       -1.1845363309   -2.1254744770   -0.9527247640
17   
torsion grid (45,)
C        0.4870185003    1.1770029725    0.4697679369
C       -2.0929998686    0.3007573101    0.9501720223
C        0.4792245670   -1.4701627345    1.1445645357
C       -0.9859304169   -1.0049529373   -1.2188290116
N        1.1769011348    0.4646482322   -3.3236147899
N        0.2231679640   -1.2501890114   -1.9647693154
N        0.6708433677   -0.2860875518   -2.6253200784
S       -0.5628623637   -0.0926458206    0.4400796161
H        1.5408969828    0.9269873401    0.4354897608
H        0.1156170044    2.1014343184    0.0456754513
H       -2.8471721616   -0.4377773371    0.6883758623
H       -2.1282609693    0.7443538773    1.9397995891
H       -0.1723006998   -2.3397478352    1.2476704850
H        1.3109871388   -1.6888464097    0.4716033540
H        0.8303722162   -1.1324630277    2.1200181175
H       -1.6976315357   -0.3357236064   -1.7108656108
H       -1.4438137245   -1.9672331506   -0.9863845522
17   
torsion grid (60,)
C        0.4092963175    1.2465836422    0.5145300115
C       -2.1021987087    0.2299721412    1.0291673510
C        0.5327503302   -1.4364301900    1.0654013750
C       -1.0434692300   -0.9019312368   -1.2398570521
N        1.4066058465    0.1260638479   -3.2936181654
N        0.1336169238   -1.3665326277   -1.9338505875
N        0.7553236721   -0.5128532169   -2.6037931218
S       -0.5772714932   -0.0753377205    0.4452478393
H        1.4692245620    1.0522016556    0.3964265131
H       -0.0286311215    2.1654000090    0.1439288317
H       -2.8285715350   -0.5468451050    0.8051557396
H       -2.1082338167    0.6703894930    2.0207416791
H       -0.0412186673   -2.3636985229    1.0208123252
H        1.4302236613   -1.5134759419    0.4492326444
H        0.7767772189   -1.1794301351    2.0965343450
H       -1.6028853446   -0.1192325068   -1.7593737213
H       -1.6772814794   -1.7654889571   -1.0332526339
17   
torsion grid (75,)
C        0.3310895428    1.3132666676    0.5736796414
C       -2.1054291538    0.1524152600    1.0918433692
C        0.5936448478   -1.3918129953    0.9773543441
C       -1.0926384468   -0.7976545503   -1.2697609880
N        1.6014670639   -0.2462796571   -3.2025942934
N        0.0024409858   -1.4743247935   -1.9246738655
N        0.8039111749   -0.7547335096   -2.5585011212
S       -0.5885339169   -0.0553884320    0.4458653745
H        1.3922855717    1.1834998470    0.3927441067
H       -0.1684974614    2.2234886427    0.2639707633
H       -2.8026343770   -0.6534354169    0.8832870249
H       -2.0944037547    0.5835673507    2.0872604155
H        0.0965534819   -2.3497634037    0.8174182975
H        1.5234448505   -1.3455312475    0.4074620548
H        0.7720692365   -1.2154980186    2.0385070182
H       -1.4825421313    0.0700356666   -1.8085114693
H       -1.8781703780   -1.5324967820   -1.0919172998
17   
torsion grid (90,)
C        0.2523148430    1.3755623922    0.6506828241
C       -2.1074345487    0.0684949302    1.1397475415
C        0.6606286005   -1.3313379029    0.8841826039
C       -1.1264091960   -0.6896420688   -1.3105418866
N        1.7408247820   -0.6625426362   -3.0662019149
N       -0.1548125539   -1.5616622634   -1.9279641730
N        0.8118610862   -1.0130855953   -2.4960326101
S       -0.5993601802   -0.0298320702    0.4470066653
H        1.3123774779    1.3156649436    0.4293165718
H       -0.3016081984    2.2742875885    0.4059797532
H       -2.7735209875   -0.7563717880    0.9084246223
H       -2.0896969588    0.4529475202    2.1540109776
H        0.2179177412   -2.3051130769    0.6726576513
H        1.5828418222   -1.1968092317    0.3143300984
H        0.8418644020   -1.2038034416    1.9517789103
H       -1.3214955136    0.2348776190   -1.8610287534
H       -2.0422354821   -1.2622802907   -1.1729155090
17   
torsion grid (105,)
C        0.1735591814    1.4337856883    0.7455479046
C       -2.1057468474   -0.0265375331    1.1718940999
C        0.7288911477   -1.2501405199    0.7953815269
C       -1.1305660206   -0.5802872671   -1.3549859114
N        1.7832822857   -1.1170102944   -2.9396950796
N       -0.3170103617   -1.6267083942   -1.9273525749
N        0.7670079377   -1.2824582232   -2.4378918148
S       -0.6089790053    0.0039934873    0.4505615940
H        1.2332429625    1.4446671267    0.5144110338
H       -0.4271690407    2.3182603165    0.5685120912
H       -2.7410859721   -0.8556280717    0.8789051004
H       -2.0902670775    0.2783822986    2.2127580688
H        0.3332513126   -2.2358525310    0.5502907398
H        1.6303324049   -1.0378541550    0.2144832341
H        0.9303272540   -1.1614901205    1.8632066900
H       -1.1072183098    0.3597937085   -1.9141877351
H       -2.1477947158   -0.9555608877   -1.2684055948
17   
torsion grid (120,)
C        1.6800452650    0.0347950579    1.2115839933
C       -0.6898896397    1.3738386931    1.5827013284
C       -1.1402551721   -1.2350250229    0.9030591277
C        0.3135992742    0.1629639093   -1.2057755912
N       -2.6549332104   -0.7320073060   -2.4916577523
N       -0.3436508284   -0.9036530607   -1.9229006641
N       -1.5500143287   -0.7432646639   -2.1893713628
S        0.0873061587    0.1656886805    0.7586766985
H        2.2849221778   -0.6003824308    0.5728374196
H        1.8263146656   -0.0082153069    2.2854927178
H       -1.7732592052    1.3560954334    1.5309170601
H       -0.1639048731    2.3212525004    1.5960494171
H       -2.1169093958   -0.9499136213    0.5023464210
H       -0.7329629217   -2.0910587216    0.3651610471
H       -1.2103570576   -1.4416583078    1.9712262038
H        1.3857416330    0.0783081546   -1.3678261637
H       -0.0442113719    1.1612849466   -1.4760797113
17   
torsion grid (135,)
C        1.6695689190    0.1192717038    1.2298980425
C       -0.7845191858    1.3389729339    1.4847881673
C       -1.0520147533   -1.3272447831    0.9377395147
C        0.3538379409    0.0582196452   -1.2037174443
N       -2.7498863236   -0.2894665466   -2.4459249517
N       -0.4998972313   -0.8718916491   -1.9032262005
N       -1.6629236735   -0.4947751750   -2.1491469044
S        0.0840159476    0.1405715181    0.7418023813
H        2.3246789275   -0.5236572269    0.6526918317
H        1.7967042436    0.1779429610    2.3051573630
H       -1.8624649829    1.2526953943    1.4031610256
H       -0.3171903925    2.3165868942    1.4594472902
H       -2.0541911809   -1.1095205135    0.5595109656
H       -0.6093142098   -2.1652805582    0.3992297326
H       -1.0795348528   -1.5195425625    2.0106065462
H        1.3843041662   -0.2561289660   -1.3554632100
H        0.2164078113    1.1022958642   -1.5001139607
17   
torsion grid (150,)
C        1.6585150006    0.2137590445    1.2216092380
C       -0.8748563722    1.2936637067    1.3918035696
C       -0.9600973835   -1.4139940223    0.9954575824
C        0.3565712902   -0.0596600009   -1.1883195029
N       -2.7418464818    0.1914743224   -2.4695529244
N       -0.6696084447   -0.8230793485   -1.8578251298
N       -1.7280435724   -0.2204187780   -2.1333123800
S        0.0773571432    0.1122746228    0.7314454773
H        2.3506838061   -0.4296355949    0.6894903824
H        1.7766882113    0.3495124914    2.2908640156
H       -1.9434117832    1.1289737080    1.3105627936
H       -0.4725547950    2.2969726803    1.3134053306
H       -1.9729236862   -1.2812842585    0.6089958008
H       -0.4632545036   -2.2420697643    0.4887723203
H       -0.9719802391   -1.5641708594    2.0754170193
H        1.3009787403   -0.5842586804   -1.3274141621
H        0.4353642398    0.9809896648   -1.5149592416
17   
torsion grid (165,)
C        1.6398629216    0.3139224119    1.1943558409
C       -0.9621657166    1.2367972291    1.3136724994
C       -0.8741629118   -1.4891236457    1.0616459370
C        0.3329747980   -0.1801249284   -1.1726361304
N       -2.6329915700    0.6512495805   -2.5156801706
N       -0.8319546299   -0.7470064663   -1.8094792634
N       -1.7369051171    0.0536114869   -2.1297410421
S        0.0653744130    0.0838737151    0.7262124830
H        2.3635846599   -0.3095177153    0.6786899539
H        1.7592991590    0.4875920295    2.2581584185
H       -2.0176129179    0.9959926630    1.2590936722
H       -0.6245205932    2.2583107758    1.1851850779
H       -1.8854425718   -1.4419357936    0.6540060082
H       -0.3159492852   -2.3056317498    0.6007597420
H       -0.8896136076   -1.5913892875    2.1471781549
H        1.1572422910   -0.8833108625   -1.2965841358
H        0.6105618482    0.8157394909   -1.5283968564
17   
torsion grid (180,)
C        1.6181341097    0.4144117515    1.1397303634
C       -1.0392164360    1.1722753310    1.2554821380
C       -0.7993597594   -1.5503745506    1.1295527096
C        0.2904617146   -0.2990354015   -1.1655017346
N       -2.4636433240    1.0619779250   -2.5192592025
N       -0.9682686067   -0.6452428954   -1.7799747169
N       -1.7028848859    0.3109615956   -2.1130191905
S        0.0523699600    0.0566145798    0.7220333882
H        2.3649753367   -0.1716352144    0.6105121472
H        1.7587990820    0.5984210543    2.1995773958
H       -2.0759859515    0.8566187408    1.2606641757
H       -0.7727623328    2.2059374206    1.0723879062
H       -1.7580053655   -1.6172410580    0.6120158931
H       -0.1343031343   -2.3540290346    0.8083884417
H       -0.9268492393   -1.5620191898    2.2123487972
H        0.9667578136   -1.1480860956   -1.2744184784
H        0.7473621886    0.6194939752   -1.5440798444
