
  -OEChem-12122420533D

  7  6  0     0  0  0  0  0  0999 V2000
    0.3417    0.1180    0.0378 C   0  0  0  0  0  0  0  0  0  0  0  0
    0.9351   -1.0083    0.2034 N   0  0  0  0  0  0  0  0  0  0  0  0
   -1.0124    0.2069   -0.1537 N   0  0  0  0  0  0  0  0  0  0  0  0
    0.8315    1.1016    0.0308 H   0  0  0  0  0  0  0  0  0  0  0  0
    1.9361   -0.8622    0.3291 H   0  0  0  0  0  0  0  0  0  0  0  0
   -1.5626   -0.6418   -0.1651 H   0  0  0  0  0  0  0  0  0  0  0  0
   -1.4723    1.0935   -0.2833 H   0  0  0  0  0  0  0  0  0  0  0  0
  1  2  2  0  0  0  0
  1  3  1  0  0  0  0
  1  4  1  0  0  0  0
  2  5  1  0  0  0  0
  3  6  1  0  0  0  0
  3  7  1  0  0  0  0
M  END
$$$$
