
  -OEChem-12122420533D

 14 13  0     0  0  0  0  0  0999 V2000
    0.2665   -1.9058    0.0716 C   0  0  0  0  0  0  0  0  0  0  0  0
   -1.9900    1.3545   -0.6579 C   0  0  0  0  0  0  0  0  0  0  0  0
   -0.4250    0.2584    0.7468 C   0  0  0  0  0  0  0  0  0  0  0  0
    0.0157    1.3786    1.4465 O   0  0  0  0  0  0  0  0  0  0  0  0
    0.6162   -0.6649    0.6898 O   0  0  0  0  0  0  0  0  0  0  0  0
   -0.8076    0.5590   -0.5785 O   0  0  0  0  0  0  0  0  0  0  0  0
    1.1257   -2.5655    0.2045 H   0  0  0  0  0  0  0  0  0  0  0  0
    0.0573   -1.7738   -0.9939 H   0  0  0  0  0  0  0  0  0  0  0  0
   -0.6096   -2.3530    0.5617 H   0  0  0  0  0  0  0  0  0  0  0  0
   -2.2087    1.4819   -1.7196 H   0  0  0  0  0  0  0  0  0  0  0  0
   -1.8426    2.3349   -0.1915 H   0  0  0  0  0  0  0  0  0  0  0  0
   -2.8390    0.8513   -0.1735 H   0  0  0  0  0  0  0  0  0  0  0  0
   -1.2901   -0.1317    1.3077 H   0  0  0  0  0  0  0  0  0  0  0  0
    0.8580    1.6468    1.0380 H   0  0  0  0  0  0  0  0  0  0  0  0
  1  5  1  0  0  0  0
  1  7  1  0  0  0  0
  1  8  1  0  0  0  0
  1  9  1  0  0  0  0
  2  6  1  0  0  0  0
  2 10  1  0  0  0  0
  2 11  1  0  0  0  0
  2 12  1  0  0  0  0
  3  4  1  0  0  0  0
  3  5  1  0  0  0  0
  3  6  1  0  0  0  0
  3 13  1  0  0  0  0
  4 14  1  0  0  0  0
M  END
$$$$
