
  -OEChem-12102412493D

 17 17  0     1  0  0  0  0  0999 V2000
   -2.3359   -0.8747   -1.6079 C   0  0  0  0  0  0  0  0  0  0  0  0
   -3.4008    0.0962   -1.1152 C   0  0  0  0  0  0  0  0  0  0  0  0
   -2.2524   -0.2770   -0.2069 C   0  0  0  0  0  0  0  0  0  0  0  0
    0.8590    1.7761    1.0555 C   0  0  0  0  0  0  0  0  0  0  0  0
   -1.3098    0.7590    0.0983 N   0  5  0  0  0  0  0  0  0  0  0  0
    0.1357   -0.8751    1.5779 N   0  0  0  0  0  0  0  0  0  0  0  0
    1.0634   -0.1397   -0.7317 O   0  0  0  0  0  0  0  0  0  0  0  0
    0.1480    0.2165    0.4216 S   0  0  2  0  0  0  0  0  0  0  0  0
   -2.6019   -1.9253   -1.7166 H   0  0  0  0  0  0  0  0  0  0  0  0
   -1.6071   -0.5038   -2.3217 H   0  0  0  0  0  0  0  0  0  0  0  0
   -3.3815    1.1058   -1.5178 H   0  0  0  0  0  0  0  0  0  0  0  0
   -4.3940   -0.2931   -0.8945 H   0  0  0  0  0  0  0  0  0  0  0  0
   -2.4943   -0.9775    0.5964 H   0  0  0  0  0  0  0  0  0  0  0  0
    1.9107    1.5806    1.2803 H   0  0  0  0  0  0  0  0  0  0  0  0
    0.7661    2.5457    0.2859 H   0  0  0  0  0  0  0  0  0  0  0  0
    0.3141    2.0612    1.9569 H   0  0  0  0  0  0  0  0  0  0  0  0
    0.9686   -1.4494    1.4220 H   0  0  0  0  0  0  0  0  0  0  0  0
  1  2  1  0  0  0  0
  1  3  1  0  0  0  0
  1  9  1  0  0  0  0
  1 10  1  0  0  0  0
  2  3  1  0  0  0  0
  2 11  1  0  0  0  0
  2 12  1  0  0  0  0
  3  5  1  0  0  0  0
  3 13  1  0  0  0  0
  4  8  1  0  0  0  0
  4 14  1  0  0  0  0
  4 15  1  0  0  0  0
  4 16  1  0  0  0  0
  5  8  1  0  0  0  0
  6  8  2  0  0  0  0
  6 17  1  0  0  0  0
  7  8  2  0  0  0  0
M  CHG  1   5  -1
M  END
$$$$
