
  -OEChem-12122420533D

  5  4  0     0  0  0  0  0  0999 V2000
   -0.1121    0.0380   -0.0211 C   0  0  0  0  0  0  0  0  0  0  0  0
    1.6140   -0.5492    0.3034 S   0  5  0  0  0  0  0  0  0  0  0  0
   -0.3657    0.9353    0.5678 H   0  0  0  0  0  0  0  0  0  0  0  0
   -0.2714    0.3019   -1.0799 H   0  0  0  0  0  0  0  0  0  0  0  0
   -0.8672   -0.7257    0.2293 H   0  0  0  0  0  0  0  0  0  0  0  0
  1  2  1  0  0  0  0
  1  3  1  0  0  0  0
  1  4  1  0  0  0  0
  1  5  1  0  0  0  0
M  CHG  1   2  -1
M  END
$$$$
