
  -OEChem-12122420533D

  5  4  0     0  0  0  0  0  0999 V2000
   -0.4472    0.0439   -0.0066 N   0  3  0  0  0  0  0  0  0  0  0  0
   -1.4268   -0.1112    0.7098 O   0  5  0  0  0  0  0  0  0  0  0  0
   -0.3697    0.4270   -1.1489 O   0  0  0  0  0  0  0  0  0  0  0  0
    0.7985   -0.2725    0.5811 O   0  0  0  0  0  0  0  0  0  0  0  0
    0.5509   -0.5588    1.4846 H   0  0  0  0  0  0  0  0  0  0  0  0
  1  2  1  0  0  0  0
  1  3  2  0  0  0  0
  1  4  1  0  0  0  0
  4  5  1  0  0  0  0
M  CHG  2   1   1   2  -1
M  END
$$$$
