
  -OEChem-12122420533D

  6  5  0     0  0  0  0  0  0999 V2000
    0.2954    0.8062    0.6521 C   0  0  0  0  0  0  0  0  0  0  0  0
   -0.4375    2.3797    0.0562 S   0  0  0  0  0  0  0  0  0  0  0  0
   -0.1062    0.6431    1.6544 H   0  0  0  0  0  0  0  0  0  0  0  0
    1.3834    0.8717    0.7169 H   0  0  0  0  0  0  0  0  0  0  0  0
    0.0066   -0.0343    0.0178 H   0  0  0  0  0  0  0  0  0  0  0  0
    0.1660    2.3939   -1.1515 H   0  0  0  0  0  0  0  0  0  0  0  0
  1  2  1  0  0  0  0
  1  3  1  0  0  0  0
  1  4  1  0  0  0  0
  1  5  1  0  0  0  0
  2  6  1  0  0  0  0
M  END
$$$$
