
  -OEChem-12122420533D

 12 11  0     0  0  0  0  0  0999 V2000
    2.1414   -0.6151   -2.3445 C   0  5  0  0  0  0  0  0  0  0  0  0
   -0.2552    0.1296    0.1418 C   0  0  0  0  0  0  0  0  0  0  0  0
    0.3057   -1.2250    1.9839 C   0  0  0  0  0  0  0  0  0  0  0  0
    0.0777    0.5557   -1.2894 C   0  0  0  0  0  0  0  0  0  0  0  0
    1.2037   -0.0796   -1.8719 N   0  3  0  0  0  0  0  0  0  0  0  0
   -1.1996    0.6116    0.7336 O   0  0  0  0  0  0  0  0  0  0  0  0
    0.5815   -0.7912    0.6307 O   0  0  0  0  0  0  0  0  0  0  0  0
    1.0773   -1.9590    2.2110 H   0  0  0  0  0  0  0  0  0  0  0  0
   -0.6882   -1.6739    2.0384 H   0  0  0  0  0  0  0  0  0  0  0  0
    0.3604   -0.3763    2.6685 H   0  0  0  0  0  0  0  0  0  0  0  0
    0.2284    1.6392   -1.2746 H   0  0  0  0  0  0  0  0  0  0  0  0
   -0.8123    0.3645   -1.8962 H   0  0  0  0  0  0  0  0  0  0  0  0
  1  5  3  0  0  0  0
  2  4  1  0  0  0  0
  2  6  2  0  0  0  0
  2  7  1  0  0  0  0
  3  7  1  0  0  0  0
  3  8  1  0  0  0  0
  3  9  1  0  0  0  0
  3 10  1  0  0  0  0
  4  5  1  0  0  0  0
  4 11  1  0  0  0  0
  4 12  1  0  0  0  0
M  CHG  2   1  -1   5   1
M  END
$$$$
