
  -OEChem-12122420533D

 12 11  0     0  0  0  0  0  0999 V2000
    2.5807   -1.3281    2.2185 C   0  0  0  0  0  0  0  0  0  0  0  0
    0.1699   -1.3628    0.8222 C   0  0  0  0  0  0  0  0  0  0  0  0
    4.3209    0.4186    1.9831 N   0  0  0  0  0  0  0  0  0  0  0  0
    3.7820   -0.7641    2.5189 N   0  0  0  0  0  0  0  0  0  0  0  0
    2.0653   -2.7368    2.9314 S   0  0  0  0  0  0  0  0  0  0  0  0
    1.6852   -0.3753    1.0033 S   0  0  0  0  0  0  0  0  0  0  0  0
   -0.4328   -0.8327    0.0804 H   0  0  0  0  0  0  0  0  0  0  0  0
   -0.3623   -1.4221    1.7718 H   0  0  0  0  0  0  0  0  0  0  0  0
    0.4089   -2.3666    0.4705 H   0  0  0  0  0  0  0  0  0  0  0  0
    3.6990    1.2027    2.1825 H   0  0  0  0  0  0  0  0  0  0  0  0
    4.4131    0.3283    0.9708 H   0  0  0  0  0  0  0  0  0  0  0  0
    4.3590   -1.2404    3.2029 H   0  0  0  0  0  0  0  0  0  0  0  0
  1  4  1  0  0  0  0
  1  5  2  0  0  0  0
  1  6  1  0  0  0  0
  2  6  1  0  0  0  0
  2  7  1  0  0  0  0
  2  8  1  0  0  0  0
  2  9  1  0  0  0  0
  3  4  1  0  0  0  0
  3 10  1  0  0  0  0
  3 11  1  0  0  0  0
  4 12  1  0  0  0  0
M  END
$$$$
