
  -OEChem-12102412493D

 13 12  0     0  0  0  0  0  0999 V2000
   -0.1651   -0.0140   -0.0862 C   0  0  0  0  0  0  0  0  0  0  0  0
    0.5216   -1.5076   -2.3098 C   0  0  0  0  0  0  0  0  0  0  0  0
    0.1734    0.8916    0.9517 N   0  0  0  0  0  0  0  0  0  0  0  0
   -0.8439    1.0724    1.9305 N   0  3  0  0  0  0  0  0  0  0  0  0
   -1.7334   -0.5124   -0.2782 S   0  0  0  0  0  0  0  0  0  0  0  0
    1.2241   -0.3913   -1.0497 S   0  0  0  0  0  0  0  0  0  0  0  0
    1.3676   -1.7820   -2.9424 H   0  0  0  0  0  0  0  0  0  0  0  0
   -0.2316   -0.9814   -2.8962 H   0  0  0  0  0  0  0  0  0  0  0  0
    0.1015   -2.3947   -1.8357 H   0  0  0  0  0  0  0  0  0  0  0  0
    1.1161    0.8806    1.3360 H   0  0  0  0  0  0  0  0  0  0  0  0
   -0.6570    0.5833    2.8183 H   0  0  0  0  0  0  0  0  0  0  0  0
   -1.6997    0.6110    1.4486 H   0  0  0  0  0  0  0  0  0  0  0  0
   -1.0178    2.0718    2.1012 H   0  0  0  0  0  0  0  0  0  0  0  0
  1  3  1  0  0  0  0
  1  5  2  0  0  0  0
  1  6  1  0  0  0  0
  2  6  1  0  0  0  0
  2  7  1  0  0  0  0
  2  8  1  0  0  0  0
  2  9  1  0  0  0  0
  3  4  1  0  0  0  0
  3 10  1  0  0  0  0
  4 11  1  0  0  0  0
  4 12  1  0  0  0  0
  4 13  1  0  0  0  0
M  CHG  1   4   1
M  END
$$$$
