
  -OEChem-12122420533D

 26 26  0     0  0  0  0  0  0999 V2000
    4.9593   -0.6756   -4.2862 C   0  0  0  0  0  0  0  0  0  0  0  0
    4.1582    0.4126   -4.2099 C   0  0  0  0  0  0  0  0  0  0  0  0
    5.2230    0.8305   -6.2275 C   0  0  0  0  0  0  0  0  0  0  0  0
    3.0108   -0.1231   -1.9963 C   0  0  0  0  0  0  0  0  0  0  0  0
    1.8287   -0.4618    0.0265 C   0  0  0  0  0  0  0  0  0  0  0  0
    6.0035    4.1188   -8.0904 C   0  0  0  0  0  0  0  0  0  0  0  0
    3.1564    0.8345   -3.1754 C   0  0  0  0  0  0  0  0  0  0  0  0
    4.3322    1.2509   -5.3237 N   0  3  0  0  0  0  0  0  0  0  0  0
    5.5737    1.4903   -7.3704 N   0  0  0  0  0  0  0  0  0  0  0  0
    3.6406   -1.1516   -1.8445 O   0  0  0  0  0  0  0  0  0  0  0  0
    4.3719    2.4792   -9.4218 O   0  0  0  0  0  0  0  0  0  0  0  0
    3.7127    3.2220   -7.0597 O   0  0  0  0  0  0  0  0  0  0  0  0
    2.0852    0.3463   -1.1578 O   0  0  0  0  0  0  0  0  0  0  0  0
    5.9323   -0.6645   -5.7415 S   0  0  0  0  0  0  0  0  0  0  0  0
    4.7109    2.8749   -8.0710 S   0  0  0  0  0  0  0  0  0  0  0  0
    5.0342   -1.4844   -3.5740 H   0  0  0  0  0  0  0  0  0  0  0  0
    1.0596    0.0777    0.5755 H   0  0  0  0  0  0  0  0  0  0  0  0
    2.7415   -0.5525    0.6170 H   0  0  0  0  0  0  0  0  0  0  0  0
    1.4775   -1.4511   -0.2704 H   0  0  0  0  0  0  0  0  0  0  0  0
    5.5444    5.0139   -8.5169 H   0  0  0  0  0  0  0  0  0  0  0  0
    6.3304    4.2969   -7.0664 H   0  0  0  0  0  0  0  0  0  0  0  0
    6.8149    3.7664   -8.7279 H   0  0  0  0  0  0  0  0  0  0  0  0
    3.4217    1.8202   -2.7756 H   0  0  0  0  0  0  0  0  0  0  0  0
    2.1688    0.9528   -3.6362 H   0  0  0  0  0  0  0  0  0  0  0  0
    3.7805    2.0947   -5.5022 H   0  0  0  0  0  0  0  0  0  0  0  0
    6.0664    0.9405   -8.0735 H   0  0  0  0  0  0  0  0  0  0  0  0
  1  2  2  0  0  0  0
  1 14  1  0  0  0  0
  1 16  1  0  0  0  0
  2  7  1  0  0  0  0
  2  8  1  0  0  0  0
  3  8  2  0  0  0  0
  3  9  1  0  0  0  0
  3 14  1  0  0  0  0
  4  7  1  0  0  0  0
  4 10  2  0  0  0  0
  4 13  1  0  0  0  0
  5 13  1  0  0  0  0
  5 17  1  0  0  0  0
  5 18  1  0  0  0  0
  5 19  1  0  0  0  0
  6 15  1  0  0  0  0
  6 20  1  0  0  0  0
  6 21  1  0  0  0  0
  6 22  1  0  0  0  0
  7 23  1  0  0  0  0
  7 24  1  0  0  0  0
  8 25  1  0  0  0  0
  9 15  1  0  0  0  0
  9 26  1  0  0  0  0
 11 15  2  0  0  0  0
 12 15  2  0  0  0  0
M  CHG  1   8   1
M  END
$$$$
