
  -OEChem-12102412493D

 25 25  0     0  0  0  0  0  0999 V2000
    1.5407    0.9043    3.2726 C   0  0  0  0  0  0  0  0  0  0  0  0
    1.1738   -0.1965    2.5864 C   0  0  0  0  0  0  0  0  0  0  0  0
    3.4346   -0.7392    3.0125 C   0  0  0  0  0  0  0  0  0  0  0  0
   -1.2826    0.3811    2.1297 C   0  0  0  0  0  0  0  0  0  0  0  0
   -3.5741    0.6923    1.6353 C   0  0  0  0  0  0  0  0  0  0  0  0
    7.0567   -1.3816    2.3453 C   0  0  0  0  0  0  0  0  0  0  0  0
   -0.1351   -0.6025    1.9765 C   0  0  0  0  0  0  0  0  0  0  0  0
    4.4594   -1.5410    2.9117 N   0  0  0  0  0  0  0  0  0  0  0  0
    2.2383   -1.0963    2.4501 N   0  0  0  0  0  0  0  0  0  0  0  0
   -1.2436    1.4716    2.6611 O   0  0  0  0  0  0  0  0  0  0  0  0
    5.8980    0.2533    4.0966 O   0  0  0  0  0  0  0  0  0  0  0  0
    6.1620   -2.1991    4.6996 O   0  0  0  0  0  0  0  0  0  0  0  0
   -2.3942   -0.1419    1.5684 O   0  0  0  0  0  0  0  0  0  0  0  0
    3.2304    0.8582    3.7709 S   0  0  0  0  0  0  0  0  0  0  0  0
    5.8849   -1.1687    3.6947 S   0  0  0  0  0  0  0  0  0  0  0  0
    0.9135    1.7485    3.5128 H   0  0  0  0  0  0  0  0  0  0  0  0
   -4.3593    0.1206    1.1423 H   0  0  0  0  0  0  0  0  0  0  0  0
   -3.3987    1.6373    1.1168 H   0  0  0  0  0  0  0  0  0  0  0  0
   -3.8361    0.8930    2.6763 H   0  0  0  0  0  0  0  0  0  0  0  0
    8.0505   -1.2246    2.7684 H   0  0  0  0  0  0  0  0  0  0  0  0
    6.9564   -2.3973    1.9623 H   0  0  0  0  0  0  0  0  0  0  0  0
    6.8411   -0.6412    1.5746 H   0  0  0  0  0  0  0  0  0  0  0  0
   -0.4698   -1.5585    2.3987 H   0  0  0  0  0  0  0  0  0  0  0  0
   -0.0113   -0.7868    0.9015 H   0  0  0  0  0  0  0  0  0  0  0  0
    2.1672   -2.0035    2.0035 H   0  0  0  0  0  0  0  0  0  0  0  0
  1  2  2  0  0  0  0
  1 14  1  0  0  0  0
  1 16  1  0  0  0  0
  2  7  1  0  0  0  0
  2  9  1  0  0  0  0
  3  8  2  0  0  0  0
  3  9  1  0  0  0  0
  3 14  1  0  0  0  0
  4  7  1  0  0  0  0
  4 10  2  0  0  0  0
  4 13  1  0  0  0  0
  5 13  1  0  0  0  0
  5 17  1  0  0  0  0
  5 18  1  0  0  0  0
  5 19  1  0  0  0  0
  6 15  1  0  0  0  0
  6 20  1  0  0  0  0
  6 21  1  0  0  0  0
  6 22  1  0  0  0  0
  7 23  1  0  0  0  0
  7 24  1  0  0  0  0
  8 15  1  0  0  0  0
  9 25  1  0  0  0  0
 11 15  2  0  0  0  0
 12 15  2  0  0  0  0
M  END
$$$$
