
  -OEChem-12102412493D

 25 25  0     0  0  0  0  0  0999 V2000
    0.9023   -0.1347    3.3251 C   0  0  0  0  0  0  0  0  0  0  0  0
    1.0156   -0.2339    1.9850 C   0  0  0  0  0  0  0  0  0  0  0  0
    3.2939   -0.3498    2.5690 C   0  0  0  0  0  0  0  0  0  0  0  0
    0.0390    0.9180   -0.0335 C   0  0  0  0  0  0  0  0  0  0  0  0
    1.4100    1.8623   -1.7274 C   0  0  0  0  0  0  0  0  0  0  0  0
    6.7444   -1.7169    3.0731 C   0  0  0  0  0  0  0  0  0  0  0  0
   -0.0813   -0.2316    0.9595 C   0  0  0  0  0  0  0  0  0  0  0  0
    4.5566   -0.4389    2.2557 N   0  0  0  0  0  0  0  0  0  0  0  0
    2.3444   -0.3691    1.5834 N   0  0  0  0  0  0  0  0  0  0  0  0
   -0.7549    1.8244   -0.1535 O   0  0  0  0  0  0  0  0  0  0  0  0
    6.5127    0.9192    3.1825 O   0  0  0  0  0  0  0  0  0  0  0  0
    5.1193   -0.4791    4.7795 O   0  0  0  0  0  0  0  0  0  0  0  0
    1.1670    0.7931   -0.7794 O   0  0  0  0  0  0  0  0  0  0  0  0
    2.4622   -0.2037    4.1424 S   0  0  0  0  0  0  0  0  0  0  0  0
    5.7192   -0.2853    3.4427 S   0  0  0  0  0  0  0  0  0  0  0  0
   -0.0122   -0.0317    3.8931 H   0  0  0  0  0  0  0  0  0  0  0  0
    2.3468    1.6051   -2.2199 H   0  0  0  0  0  0  0  0  0  0  0  0
    1.4965    2.8152   -1.2020 H   0  0  0  0  0  0  0  0  0  0  0  0
    0.5926    1.9145   -2.4489 H   0  0  0  0  0  0  0  0  0  0  0  0
    7.5893   -1.6805    3.7632 H   0  0  0  0  0  0  0  0  0  0  0  0
    6.1537   -2.6198    3.2289 H   0  0  0  0  0  0  0  0  0  0  0  0
    7.0851   -1.6360    2.0408 H   0  0  0  0  0  0  0  0  0  0  0  0
   -1.0451   -0.1386    1.4580 H   0  0  0  0  0  0  0  0  0  0  0  0
   -0.0675   -1.1732    0.3969 H   0  0  0  0  0  0  0  0  0  0  0  0
    2.6295   -0.3138    0.6111 H   0  0  0  0  0  0  0  0  0  0  0  0
  1  2  2  0  0  0  0
  1 14  1  0  0  0  0
  1 16  1  0  0  0  0
  2  7  1  0  0  0  0
  2  9  1  0  0  0  0
  3  8  2  0  0  0  0
  3  9  1  0  0  0  0
  3 14  1  0  0  0  0
  4  7  1  0  0  0  0
  4 10  2  0  0  0  0
  4 13  1  0  0  0  0
  5 13  1  0  0  0  0
  5 17  1  0  0  0  0
  5 18  1  0  0  0  0
  5 19  1  0  0  0  0
  6 15  1  0  0  0  0
  6 20  1  0  0  0  0
  6 21  1  0  0  0  0
  6 22  1  0  0  0  0
  7 23  1  0  0  0  0
  7 24  1  0  0  0  0
  8 15  1  0  0  0  0
  9 25  1  0  0  0  0
 11 15  2  0  0  0  0
 12 15  2  0  0  0  0
M  END
$$$$
