
  -OEChem-12102412493D

  7  6  0     1  0  0  0  0  0999 V2000
   -0.8068   -0.7803   -0.0687 C   0  0  0  0  0  0  0  0  0  0  0  0
   -2.9407   -0.5183   -1.6115 O   0  0  0  0  0  0  0  0  0  0  0  0
   -1.4888   -0.8039   -1.7669 S   0  0  2  0  0  0  0  0  0  0  0  0
   -1.1761   -2.9759   -2.0258 Cl  0  0  0  0  0  0  0  0  0  0  0  0
    0.2293   -1.1230   -0.0884 H   0  0  0  0  0  0  0  0  0  0  0  0
   -1.4245   -1.4284    0.5548 H   0  0  0  0  0  0  0  0  0  0  0  0
   -0.8703    0.2569    0.2721 H   0  0  0  0  0  0  0  0  0  0  0  0
  1  3  1  0  0  0  0
  1  5  1  0  0  0  0
  1  6  1  0  0  0  0
  1  7  1  0  0  0  0
  2  3  2  0  0  0  0
  3  4  1  0  0  0  0
M  END
$$$$
