
  -OEChem-12122420533D

 25 25  0     0  0  0  0  0  0999 V2000
    0.9289    1.2441    3.2993 C   0  0  0  0  0  0  0  0  0  0  0  0
    0.8107    0.4256    2.2336 C   0  0  0  0  0  0  0  0  0  0  0  0
    3.1156    0.1897    2.6317 C   0  0  0  0  0  0  0  0  0  0  0  0
   -0.6051   -1.3203    1.0874 C   0  0  0  0  0  0  0  0  0  0  0  0
   -2.1508   -3.0966    0.9017 C   0  0  0  0  0  0  0  0  0  0  0  0
    6.2859   -1.4739    3.7019 C   0  0  0  0  0  0  0  0  0  0  0  0
   -0.4215    0.1526    1.4200 C   0  0  0  0  0  0  0  0  0  0  0  0
    4.2794   -0.3383    2.3733 N   0  0  0  0  0  0  0  0  0  0  0  0
    2.0304   -0.1362    1.8647 N   0  0  0  0  0  0  0  0  0  0  0  0
    0.2906   -2.0460    0.6890 O   0  0  0  0  0  0  0  0  0  0  0  0
    6.5785    0.7759    2.3356 O   0  0  0  0  0  0  0  0  0  0  0  0
    5.2182    0.8382    4.4775 O   0  0  0  0  0  0  0  0  0  0  0  0
   -1.8774   -1.7161    1.2478 O   0  0  0  0  0  0  0  0  0  0  0  0
    2.5834    1.3317    3.8990 S   0  0  0  0  0  0  0  0  0  0  0  0
    5.6217    0.1340    3.2414 S   0  0  0  0  0  0  0  0  0  0  0  0
    0.1431    1.8220    3.7665 H   0  0  0  0  0  0  0  0  0  0  0  0
   -3.2162   -3.2319    1.0828 H   0  0  0  0  0  0  0  0  0  0  0  0
   -1.5607   -3.7644    1.5322 H   0  0  0  0  0  0  0  0  0  0  0  0
   -1.9076   -3.2762   -0.1474 H   0  0  0  0  0  0  0  0  0  0  0  0
    7.2198   -1.2846    4.2342 H   0  0  0  0  0  0  0  0  0  0  0  0
    5.5659   -1.9782    4.3469 H   0  0  0  0  0  0  0  0  0  0  0  0
    6.4691   -2.0413    2.7894 H   0  0  0  0  0  0  0  0  0  0  0  0
   -0.3504    0.6738    0.4555 H   0  0  0  0  0  0  0  0  0  0  0  0
   -1.3003    0.5369    1.9373 H   0  0  0  0  0  0  0  0  0  0  0  0
    2.0944   -0.8745    1.1681 H   0  0  0  0  0  0  0  0  0  0  0  0
  1  2  2  0  0  0  0
  1 14  1  0  0  0  0
  1 16  1  0  0  0  0
  2  7  1  0  0  0  0
  2  9  1  0  0  0  0
  3  8  2  0  0  0  0
  3  9  1  0  0  0  0
  3 14  1  0  0  0  0
  4  7  1  0  0  0  0
  4 10  2  0  0  0  0
  4 13  1  0  0  0  0
  5 13  1  0  0  0  0
  5 17  1  0  0  0  0
  5 18  1  0  0  0  0
  5 19  1  0  0  0  0
  6 15  1  0  0  0  0
  6 20  1  0  0  0  0
  6 21  1  0  0  0  0
  6 22  1  0  0  0  0
  7 23  1  0  0  0  0
  7 24  1  0  0  0  0
  8 15  1  0  0  0  0
  9 25  1  0  0  0  0
 11 15  2  0  0  0  0
 12 15  2  0  0  0  0
M  END
$$$$
