
  -OEChem-12122420533D

 24 25  0     0  0  0  0  0  0999 V2000
    1.8742   -1.0563   -0.1747 C   0  0  0  0  0  0  0  0  0  0  0  0
    2.4175   -2.1289    0.5404 C   0  0  0  0  0  0  0  0  0  0  0  0
    1.2953    0.0086    0.5240 C   0  0  0  0  0  0  0  0  0  0  0  0
    2.3792   -2.1367    1.9364 C   0  0  0  0  0  0  0  0  0  0  0  0
    1.2627    0.0014    1.9202 C   0  0  0  0  0  0  0  0  0  0  0  0
    2.8279   -1.6034    4.8909 C   0  0  0  0  0  0  0  0  0  0  0  0
    0.6642   -0.5645    4.8412 C   0  0  0  0  0  0  0  0  0  0  0  0
    2.7979   -1.6140    6.2836 C   0  0  0  0  0  0  0  0  0  0  0  0
    0.6217   -0.5719    6.2337 C   0  0  0  0  0  0  0  0  0  0  0  0
    1.8025   -1.0718    2.6531 C   0  0  0  0  0  0  0  0  0  0  0  0
    1.7648   -1.0799    4.1341 C   0  0  0  0  0  0  0  0  0  0  0  0
    1.6902   -1.0991    6.9807 C   0  0  0  0  0  0  0  0  0  0  0  0
    1.6814   -1.0517    8.3843 N   0  0  0  0  0  0  0  0  0  0  0  0
    1.9018   -1.0501   -1.2613 H   0  0  0  0  0  0  0  0  0  0  0  0
    2.8618   -2.9675    0.0096 H   0  0  0  0  0  0  0  0  0  0  0  0
    0.8787    0.8533   -0.0193 H   0  0  0  0  0  0  0  0  0  0  0  0
    2.7763   -2.9917    2.4772 H   0  0  0  0  0  0  0  0  0  0  0  0
    0.8392    0.8508    2.4495 H   0  0  0  0  0  0  0  0  0  0  0  0
    3.7093   -1.9858    4.3829 H   0  0  0  0  0  0  0  0  0  0  0  0
   -0.1905   -0.1772    4.2930 H   0  0  0  0  0  0  0  0  0  0  0  0
    3.6460   -2.0095    6.8392 H   0  0  0  0  0  0  0  0  0  0  0  0
   -0.2493   -0.1721    6.7495 H   0  0  0  0  0  0  0  0  0  0  0  0
    2.2513   -1.7641    8.8266 H   0  0  0  0  0  0  0  0  0  0  0  0
    0.7535   -1.0267    8.7920 H   0  0  0  0  0  0  0  0  0  0  0  0
  1  2  1  0  0  0  0
  1  3  2  0  0  0  0
  1 14  1  0  0  0  0
  2  4  2  0  0  0  0
  2 15  1  0  0  0  0
  3  5  1  0  0  0  0
  3 16  1  0  0  0  0
  4 10  1  0  0  0  0
  4 17  1  0  0  0  0
  5 10  2  0  0  0  0
  5 18  1  0  0  0  0
  6  8  2  0  0  0  0
  6 11  1  0  0  0  0
  6 19  1  0  0  0  0
  7  9  1  0  0  0  0
  7 11  2  0  0  0  0
  7 20  1  0  0  0  0
  8 12  1  0  0  0  0
  8 21  1  0  0  0  0
  9 12  2  0  0  0  0
  9 22  1  0  0  0  0
 10 11  1  0  0  0  0
 12 13  1  0  0  0  0
 13 23  1  0  0  0  0
 13 24  1  0  0  0  0
M  END
$$$$
