24
0 1 C12H11N
C                     1.876380689366    -1.058075656077    -0.174707501554
C                     3.061380102685    -0.967408173794     0.563401191134
C                     0.655329438122    -1.156121191620     0.501084123907
C                     3.024212314689    -0.972269454948     1.959413155228
C                     0.620738547347    -1.166162964205     1.897152582960
C                     2.763991532760    -1.724237542205     4.888186772441
C                     0.732144357514    -0.446359199165     4.843999369370
C                     2.732791143875    -1.737646808055     6.280892273278
C                     0.691581119821    -0.450822883022     6.236454749306
C                     1.804013239841    -1.073199731262     2.653134198896
C                     1.766567686728    -1.081250908517     4.134142061516
C                     1.692687975738    -1.100339679908     6.980743803182
N                     1.689495364957    -1.055829928539     8.384512833129
H                     1.904080523377    -1.052147310245    -1.261254008129
H                     4.016350463568    -0.880252814199     0.050881394243
H                    -0.272184462643    -1.236987724575    -0.060544884499
H                     3.949959250413    -0.868061941834     2.519090065946
H                    -0.332516289813    -1.275272769707     2.407608694566
H                     3.565130914602    -2.251465248156     4.376984542136
H                    -0.042909027349     0.085901987496     4.298953642307
H                     3.516765509282    -2.251708516211     6.833723440677
H                    -0.113227904889     0.066519887886     6.755128205103
H                     2.190749820425    -1.819524699203     8.824156323690
H                     0.768496291836    -0.945129564512     8.793555058659
