19   
torsion grid (-165,)
C        0.1860192642    0.0490470122   -0.9133803218
C       -1.8682263318   -1.6153133965    2.0092043346
C        0.7077123879    1.0465387955   -3.1188991043
C       -0.7779519363   -0.7647676938    1.3498783477
C       -0.9596564043   -0.6601883646   -0.1615333901
N       -0.1731842494    0.3931213811   -2.1636553304
O       -2.2305040926   -0.0912692136   -0.5317277609
S        1.7191767895    0.2683801200   -0.3030890470
H       -1.7162878664   -1.6627105601    3.0921376690
H       -2.8672749288   -1.2098196019    1.8232198631
H       -1.8514985461   -2.6418585646    1.6251731272
H        1.5867270368    0.4242734693   -3.3101749321
H        0.1565516509    1.2013156327   -4.0487839587
H        1.0586992297    2.0090262648   -2.7314835526
H       -0.7617014268    0.2459043079    1.7799488133
H        0.2106441320   -1.1846236630    1.5461950829
H       -0.9983402998   -1.6761998352   -0.5737265531
H       -1.1612267200    0.3026528265   -2.3808172097
H       -2.3223198319    0.7500366820   -0.0534882624
19   
torsion grid (-150,)
C        0.2090247565   -0.0504402791   -0.9531951688
C       -1.8567009571   -1.5656088198    2.0345365922
C        0.7065086941    1.1120289195   -3.0789525002
C       -0.8037694244   -0.7052208507    1.3293759644
C       -0.9432732298   -0.7367595615   -0.1917318051
N       -0.1859443880    0.4749001005   -2.1239149014
O       -2.2228589764   -0.2406980266   -0.6314750710
S        1.7923031490   -0.0648653239   -0.4331049848
H       -1.7349397300   -1.5087224611    3.1207877898
H       -2.8751918039   -1.2479798004    1.7904495021
H       -1.7601145679   -2.6174928407    1.7426207769
H        1.4778386478    0.4090666443   -3.4085087168
H        0.1173174564    1.4433010679   -3.9365608844
H        1.2109466617    1.9696670699   -2.6226544013
H       -0.8666292019    0.3392212004    1.6677588022
H        0.2032924671   -1.0403778104    1.5840655996
H       -0.9312457187   -1.7822176200   -0.5221428689
H       -1.1833221099    0.4332390902   -2.3126484471
H       -2.4158838679    0.5625049002   -0.1197074627
19   
torsion grid (-135,)
C        0.2226134264   -0.1665672275   -1.0068760963
C       -1.8483243053   -1.4853072632    2.0589135601
C        0.7040115813    1.1856015170   -3.0180631556
C       -0.8145756793   -0.6591642610    1.2870268854
C       -0.9279092304   -0.8329853119   -0.2295191749
N       -0.1889498516    0.5309129447   -2.0752876754
O       -2.2124549558   -0.4038535862   -0.7219317108
S        1.8226734819   -0.3733869360   -0.5856619502
H       -1.7380319009   -1.3285246712    3.1364889867
H       -2.8752267946   -1.2236167888    1.7840601609
H       -1.7171133078   -2.5548461291    1.8609562638
H        1.3712687785    0.4550815837   -3.4868822830
H        0.1004222336    1.6799808899   -3.7820247522
H        1.3268201190    1.9234669700   -2.5037271052
H       -0.9165254964    0.4103229213    1.5241779626
H        0.1985976080   -0.9388284852    1.5816840770
H       -0.8739328284   -1.9001592878   -0.4703401558
H       -1.1909327792    0.5230758558   -2.2444117446
H       -2.5050722425    0.3423428642   -0.1735842775
19   
torsion grid (-120,)
C        0.2242735023   -0.2852748440   -1.0899023413
C       -1.8462172227   -1.2800872105    2.0760609986
C        0.7279014583    1.2885518274   -2.9218412299
C       -0.7672223833   -0.6030913353    1.2238274829
C       -0.9105777619   -0.9063431256   -0.2748995200
N       -0.1752506829    0.5914785978   -2.0198798891
O       -2.1613770950   -0.4287147774   -0.8034079074
S        1.8142066278   -0.7131935865   -0.8203785003
H       -1.6644457162   -1.0998641562    3.1398999785
H       -2.8522342359   -0.8964195175    1.8633712595
H       -1.8544265322   -2.3654434103    1.9207860938
H        1.3070046333    0.5717247066   -3.5122801869
H        0.1348169375    1.9214674671   -3.5850833654
H        1.4350001191    1.9041487760   -2.3573159703
H       -0.7975439710    0.4840438648    1.3621531893
H        0.2238381451   -0.9419221081    1.5335593150
H       -0.8432784925   -1.9916509390   -0.4283191551
H       -1.1763548782    0.7424388765   -2.0944864267
H       -2.8807545951   -0.8083035069   -0.2768660106
19   
torsion grid (-105,)
C        0.2236171430   -0.3978040647   -1.1472132938
C       -1.8401788795   -1.2016791522    2.0649901246
C        0.7199936405    1.3381908388   -2.8285017591
C       -0.7858018929   -0.5603394939    1.1553857992
C       -0.8950602527   -1.0134848461   -0.3099277742
N       -0.1706472911    0.6057690234   -1.9421187761
O       -2.1551072693   -0.6324532767   -0.8945665684
S        1.7954921817   -0.9330085671   -1.0014705682
H       -1.6759377561   -0.9104600105    3.1068544227
H       -2.8621798893   -0.8891753682    1.8141897476
H       -1.7970240229   -2.2956180081    2.0140167806
H        1.1997421594    0.6583373198   -3.5401160616
H        0.1348986248    2.0858275276   -3.3678665151
H        1.5093320936    1.8309455173   -2.2532928152
H       -0.8658165311    0.5327224539    1.1885243705
H        0.2155527328   -0.8238962788    1.5048872967
H       -0.7785933919   -2.1020679060   -0.3654714175
H       -1.1711559308    0.7758380221   -1.9802104280
H       -2.8637676114   -0.8840981318   -0.2830947500
19   
torsion grid (-90,)
C        0.3590409322   -0.1489765933   -0.8908072397
C        0.5216175708   -1.3590317845    2.0286317377
C        1.0001681893    2.0216188662   -1.8906977970
C       -0.6893688403   -0.6922672833    1.3713662372
C       -0.7844262354   -0.8541336952   -0.1536943041
N        0.0776313300    1.1243078055   -1.2132214679
O       -2.0640966421   -0.3069891475   -0.5318662371
S        1.8007944384   -0.9105314989   -1.2272272932
H        0.4481866614   -1.2672410658    3.1173588771
H        0.5713895560   -2.4243943211    1.7811912221
H        1.4620814869   -0.9056902323    1.7085799804
H        1.2942266067    1.6089486285   -2.8612896508
H        0.5069057346    2.9853351290   -2.0329508687
H        1.9092101765    2.1565938317   -1.2969153983
H       -1.6147708190   -1.1180183683    1.7738418824
H       -0.7085355025    0.3790054193    1.6057963407
H       -0.7315948753   -1.9171619026   -0.4099712917
H       -0.8665643337    1.4361688262   -1.0048343135
H       -2.2685509431   -0.6188678475   -1.4282436605
19   
torsion grid (-75,)
C        0.3029716410   -0.2434273558   -0.9544942137
C        0.5523171888   -1.1674143050    1.9710850686
C        1.0606315267    1.9754644824   -1.7468228779
C       -0.7475219230   -0.6863995426    1.3206657949
C       -0.8307950791   -0.9336082027   -0.1909207798
N        0.1329256313    1.0859895617   -1.0648731851
O       -2.1113120385   -0.4122071374   -0.6018314745
S        1.6274477389   -1.0765103517   -1.5186775429
H        0.5062326978   -1.0222927585    3.0551441883
H        0.7240241323   -2.2313351423    1.7783661699
H        1.4210631809   -0.6231621364    1.5913554214
H        1.1938411782    1.6719041005   -2.7908251738
H        0.6632446017    2.9916178667   -1.7049337062
H        2.0408290967    1.9438987036   -1.2627491238
H       -1.6072202704   -1.1983425405    1.7660204879
H       -0.8898789824    0.3853066414    1.5030551754
H       -0.7636705720   -2.0056044958   -0.3988770718
H       -0.7789455712    1.4404595728   -0.7922629834
H       -2.2728396862   -0.7056621943   -1.5133774187
19   
torsion grid (-60,)
C        0.2594707181   -0.2899427912   -1.0110218796
C        0.5450216814   -1.0252156691    1.9427405940
C        1.1048118566    1.9456764059   -1.6538713745
C       -0.7919993909   -0.6687096700    1.2862409853
C       -0.8409966566   -0.9934999651   -0.2088614136
N        0.2066604709    1.0531767506   -0.9353726345
O       -2.1350491000   -0.5562924876   -0.6676763695
S        1.4242254110   -1.1379369132   -1.8410745338
H        0.5070046639   -0.8313788755    3.0191878094
H        0.7884737338   -2.0829956522    1.7986935138
H        1.3674090631   -0.4390715210    1.5215532953
H        1.0271665573    1.7940965874   -2.7363087243
H        0.8432491591    2.9762356640   -1.4050392353
H        2.1397158633    1.7488423045   -1.3621723108
H       -1.6107010574   -1.2222787970    1.7580617139
H       -1.0141662213    0.3952845280    1.4287589445
H       -0.7174659338   -2.0692824979   -0.3636527466
H       -0.6402477501    1.4470831446   -0.5389907696
H       -2.2392385771   -0.8551157790   -1.5861481092
19   
torsion grid (-45,)
C        0.2183364886   -0.2948265351   -1.0685263074
C        0.5030113219   -0.9218646215    1.9564176650
C        1.1516379544    1.9301245828   -1.6165960488
C       -0.8359032677   -0.6510711515    1.2626956257
C       -0.8290948901   -1.0278526352   -0.2182830586
N        0.3062970840    1.0284942121   -0.8464990116
O       -2.1376188231   -0.7222200749   -0.7285308077
S        1.1331060253   -1.1095498101   -2.1959257686
H        0.4442744297   -0.6758409380    3.0210990035
H        0.7836673569   -1.9770088597    1.8716642122
H        1.3114795161   -0.3293309011    1.5167643609
H        0.8817023917    1.9061839150   -2.6778024212
H        1.0275241872    2.9419468936   -1.2252405039
H        2.1990555416    1.6282793144   -1.5305686683
H       -1.6340778789   -1.2354841925    1.7322127390
H       -1.1286295603    0.3997106876    1.3821743897
H       -0.6181404578   -2.0969023520   -0.3202326592
H       -0.3793882898    1.4405892809   -0.2249607440
H       -2.1738946382   -1.0447020486   -1.6448152418
19   
torsion grid (-30,)
C        0.1710219997   -0.2793418437   -1.1274666549
C        0.4553024304   -0.8428926491    1.9874377845
C        1.1863301809    1.9269419473   -1.5951770329
C       -0.8659242537   -0.6344921836    1.2386413902
C       -0.8026309542   -1.0574477496   -0.2275567850
N        0.3947258326    1.0020877230   -0.7951534298
O       -2.1231016551   -0.9063841927   -0.7660349695
S        0.8178235403   -1.0118749958   -2.4786026356
H        0.3505487307   -0.5699585329    3.0419783788
H        0.7667421765   -1.8919652373    1.9445287415
H        1.2662484568   -0.2423826144    1.5631732450
H        0.7369961907    2.0668401928   -2.5838940653
H        1.2362834272    2.8839423500   -1.0717338955
H        2.1954293105    1.5309790775   -1.7378072951
H       -1.6572825156   -1.2353756297    1.6983834400
H       -1.2097863554    0.4050450575    1.3235996718
H       -0.4897817255   -2.1061348851   -0.2802398235
H       -0.1137340306    1.3790879908   -0.0050848041
H       -2.0918662948   -1.2279990590   -1.6839445058
19   
torsion grid (-15,)
C        0.2488214573   -0.3232922780   -0.8795040620
C       -1.8960310394   -1.5024807970    2.2180493686
C        2.1103831559    1.3016012487   -0.9504732353
C       -0.7995399040   -0.7315642197    1.4734967503
C       -0.8859212366   -0.9331036354   -0.0387143207
N        1.0370098298    0.5802284988   -0.2783546197
O       -2.1269262142   -0.3753985171   -0.4769191167
S        0.3935354057   -0.7527736243   -2.4866384684
H       -1.8184970133   -1.3422694410    3.2981633989
H       -2.8857355721   -1.1775387518    1.8891972446
H       -1.8122115007   -2.5786929693    2.0308274880
H        1.7120326957    1.8931328006   -1.7804461892
H        2.5942755569    1.9585054459   -0.2248725542
H        2.8420246405    0.5985530644   -1.3589438984
H       -0.8972949736    0.3375615754    1.7058804669
H        0.1861118723   -1.0655114722    1.8205758960
H       -0.8641888593   -2.0102151904   -0.2501966102
H        0.8486163764    0.8076176842    0.6895626285
H       -2.1654398299   -0.5131189742   -1.4406740422
19   
torsion grid (0,)
C        0.1958473665   -0.2524485092   -0.8983881325
C       -1.8996387297   -1.4739646190    2.2231097590
C        2.1411239502    1.2717928388   -0.9325039578
C       -0.8385679154   -0.6702754875    1.4618758325
C       -0.8801537562   -0.9471847994   -0.0413306673
N        1.0767060413    0.5339058971   -0.2630121235
O       -2.1718378564   -0.5754393730   -0.5130907066
S        0.1989625164   -0.4886712818   -2.5522812192
H       -1.8511556038   -1.2607483632    3.2957766406
H       -2.9006450367   -1.2265789504    1.8636142239
H       -1.7465274679   -2.5501852265    2.0861326058
H        1.7203305006    1.9773102362   -1.6553494492
H        2.7161301338    1.8118665348   -0.1776653583
H        2.7958852565    0.5838942281   -1.4749561943
H       -1.0004111971    0.4012885806    1.6377526912
H        0.1543771260   -0.9350322537    1.8480015366
H       -0.7213672749   -2.0248735927   -0.1982746915
H        0.9728991322    0.6576871662    0.7357078636
H       -2.1409323381   -0.6611025777   -1.4851025281
19   
torsion grid (15,)
C        0.1452824681   -0.1801337219   -0.9037000687
C       -1.9112051263   -1.4516695420    2.2244945439
C        2.1683764508    1.2401264481   -0.9277478748
C       -0.8836532345   -0.6142853276    1.4538440984
C       -0.8665357745   -0.9594711186   -0.0381959449
N        1.1149387459    0.4855658422   -0.2590484786
O       -2.1820957949   -0.7866668139   -0.5394951398
S        0.0117649001   -0.2151971262   -2.5687305666
H       -1.8982253082   -1.1947110924    3.2886160002
H       -2.9166944079   -1.2792737969    1.8356860502
H       -1.6918605584   -2.5212464059    2.1323464618
H        1.7367868719    2.0394685079   -1.5376972834
H        2.8244881428    1.6672227174   -0.1667316568
H        2.7440794966    0.5852656173   -1.5879528822
H       -1.1105772815    0.4523060666    1.5742524860
H        0.1092428841   -0.8035596536    1.8832710826
H       -0.5648073336   -2.0158883886   -0.1403884275
H        1.0939338158    0.5002376152    0.7520261419
H       -2.1022141088   -0.7768493795   -1.5148324167
19   
torsion grid (30,)
C        0.1025068979   -0.1160373239   -0.8949942805
C       -1.9224530179   -1.4384799252    2.2253689094
C        2.1940125911    1.2041271086   -0.9330417859
C       -0.9419608394   -0.5560631450    1.4446188232
C       -0.8477609088   -0.9706720365   -0.0304060950
N        1.1562463961    0.4271257905   -0.2655521234
O       -2.1556506391   -0.9877838317   -0.5658221284
S       -0.1664316790    0.0589293916   -2.5337293953
H       -1.9675733935   -1.1288649435    3.2745336712
H       -2.9244072328   -1.3706860369    1.7973058208
H       -1.6129465487   -2.4892961505    2.1955025267
H        1.7623531658    2.0906809268   -1.4072982193
H        2.9326900788    1.5062304744   -0.1879581210
H        2.6767239772    0.6058074258   -1.7110657205
H       -1.2540387353    0.4934043975    1.4993623511
H        0.0445443677   -0.6391765242    1.9200923518
H       -0.4174630189   -1.9878222898   -0.0723878052
H        1.2228003043    0.3166893322    0.7374458042
H       -2.0601669181   -0.8468721925   -1.5319584589
19   
torsion grid (45,)
C        0.0737513408   -0.0705282009   -0.8754707499
C       -1.9221962062   -1.4293206728    2.2301194639
C        2.2175845874    1.1654555057   -0.9366857990
C       -1.0187310966   -0.4919108293    1.4226156933
C       -0.8274925321   -0.9851360585   -0.0224961329
N        1.2038461197    0.3474112499   -0.2816736937
O       -2.0975869501   -1.1715875040   -0.6060622420
S       -0.3309409299    0.3340371437   -2.4425394553
H       -2.0547595329   -1.0533763213    3.2498501330
H       -2.9037387015   -1.5151817557    1.7595799665
H       -1.4891043672   -2.4342658360    2.2938970533
H        1.7929811408    2.1253917899   -1.2452204022
H        3.0341022791    1.3339420903   -0.2317627066
H        2.5981916140    0.6608281806   -1.8295947454
H       -1.4482232849    0.5157716627    1.3902120292
H       -0.0492297877   -0.4177473045    1.9321738302
H       -0.2986662950   -1.9550296761    0.0109160154
H        1.3700041955    0.0713116806    0.6772371465
H       -2.0287667458   -0.8588246966   -1.5350792793
19   
torsion grid (60,)
C        0.0604710221   -0.0469275340   -0.8513123957
C       -1.9130330854   -1.4092274743    2.2365827134
C        2.2361398369    1.1343582966   -0.9307511063
C       -1.0996026240   -0.4345614146    1.3807601074
C       -0.7991229518   -1.0121415576   -0.0181067225
N        1.2574074425    0.2461996238   -0.3151882882
O       -2.0020218820   -1.3587516117   -0.6645552538
S       -0.4826378709    0.6030106322   -2.2867008224
H       -2.1501164310   -0.9660506120    3.2093559880
H       -2.8486832404   -1.6693209638    1.7363772784
H       -1.3564793488   -2.3368406805    2.4155021340
H        1.8148567872    2.1358753825   -1.0563089402
H        3.1137672949    1.1838820506   -0.2832843726
H        2.5260409169    0.7616845212   -1.9179673408
H       -1.6485937740    0.5047235323    1.2474392062
H       -0.1627919988   -0.1879103846    1.8961516093
H       -0.2019420993   -1.9312664065    0.1066366077
H        1.5178656602   -0.2167922569    0.5469344784
H       -2.0404988069   -0.8287026952   -1.4915487552
19   
torsion grid (75,)
C        0.0680890009   -0.0249638707   -0.8117405565
C       -1.9404990731   -1.3843726500    2.2299317562
C        2.2633535096    1.1160702550   -0.9430568426
C       -1.1739251000   -0.3975739127    1.3457253347
C       -0.7505033871   -1.0341871150    0.0038816418
N        1.3254282997    0.1557743530   -0.3738428258
O       -1.8702290120   -1.5163885313   -0.7060081858
S       -0.5983163633    0.8187768585   -2.0844526562
H       -2.2676868735   -0.9020960082    3.1568877585
H       -2.8216728939   -1.7631786579    1.7064861600
H       -1.3142692568   -2.2428739135    2.5005593608
H        1.8652641946    2.1319234642   -0.8634819474
H        3.2056481786    1.0464187403   -0.3962313635
H        2.4347309360    0.9004555718   -2.0018995698
H       -1.7959514095    0.4764652680    1.1211181654
H       -0.2850810122   -0.0300229682    1.8745932534
H       -0.1079355499   -1.9030306178    0.2120379769
H        1.6470782183   -0.4241902376    0.3922049115
H       -2.0624975590   -0.8517655800   -1.4026962465
19   
torsion grid (90,)
C        0.0748916162   -0.4227755055   -1.2167135785
C        0.6383399424   -1.2013211470    1.7311447218
C        2.3273108491   -0.7031390431   -2.2073503899
C       -0.7038914518   -0.7199320191    1.1724494508
C       -0.9689191031   -1.0773996481   -0.3050515389
N        1.1726790545   -1.1616672450   -1.4444424498
O       -2.2859905593   -0.7230830024   -0.6787000790
S       -0.1385985335    1.1252326545   -1.7965400247
H        0.7013291432   -0.9953305085    2.8041032031
H        0.7636845282   -2.2841818145    1.6012393693
H        1.4847608572   -0.7014127596    1.2502098819
H        2.7566224003    0.1925326612   -1.7486270645
H        3.0714071314   -1.5016908895   -2.2241729975
H        2.0320155830   -0.4512739167   -3.2301939611
H       -1.5292822648   -1.1615001272    1.7406711130
H       -0.7896426749    0.3674915852    1.2753674601
H       -0.9034966606   -2.1679910255   -0.4235835267
H        1.1972074108   -2.0996979037   -1.0628390217
H       -2.2388764507    0.2001852021   -1.0021281522
19   
torsion grid (105,)
C        0.1668908954   -0.4161241333   -1.1334723653
C        0.5828844160   -1.1044761593    1.8130338399
C        2.3193671912   -0.7394503227   -2.3134085061
C       -0.7664830362   -0.7240471705    1.1955590391
C       -0.9053045882   -1.1103057890   -0.2861182097
N        1.1751639763   -1.2043094008   -1.5385164364
O       -2.2041300586   -0.8168416285   -0.7771294945
S        0.0552138214    1.2089596344   -1.4885822311
H        0.5987335871   -0.8720633710    2.8822028627
H        0.7842740928   -2.1780792296    1.7080821544
H        1.4080849995   -0.5586170315    1.3440882966
H        2.8573805457    0.0420172798   -1.7686378974
H        2.9832268384   -1.5867691777   -2.4950610560
H        1.9858350141   -0.3190489256   -3.2666779138
H       -1.5853895484   -1.2208522133    1.7266084091
H       -0.9296766250    0.3556494124    1.2797866093
H       -0.7944579833   -2.1982609616   -0.3859276500
H        1.1387212432   -2.1842367566   -1.2844509372
H       -2.2087839639    0.1399014919   -0.9765360979
19   
torsion grid (120,)
C        0.2833597046   -0.4172006097   -1.0521620566
C        0.4968697121   -1.0410746602    1.9453188676
C        2.2921959715   -0.7499655413   -2.4606184104
C       -0.8143403681   -0.7189145154    1.2209616588
C       -0.8098024177   -1.1380956229   -0.2528333032
N        1.1914728498   -1.2205718585   -1.6287948689
O       -2.0750575654   -0.9121954230   -0.8686539084
S        0.2723371826    1.2420556251   -1.2202338014
H        0.4328998814   -0.7710410670    3.0037968804
H        0.7318246478   -2.1113065302    1.8916695697
H        1.3370533291   -0.4877828200    1.5129294807
H        2.9283336973   -0.0622095911   -1.8960812788
H        2.8772466337   -1.6132503465   -2.7834399303
H        1.9069130068   -0.2145053728   -3.3336056578
H       -1.6543418815   -1.2369815059    1.6960185294
H       -1.0181298320    0.3557179598    1.2708389467
H       -0.6531539433   -2.2225226705   -0.3183590604
H        1.0855804014   -2.2197342230   -1.5003403178
H       -2.1497101929    0.0526243203   -0.9915689238
19   
torsion grid (135,)
C        0.4089748985   -0.4293173683   -0.9785660470
C        0.4002366903   -0.9897658139    2.0844725994
C        2.2464949325   -0.7437178075   -2.6085387812
C       -0.8459300881   -0.7093429674    1.2377559383
C       -0.6994598151   -1.1663504979   -0.2129136094
N        1.1998085058   -1.2258673739   -1.7167287829
O       -1.9203854350   -1.0164397307   -0.9439632596
S        0.5175095534    1.2350908931   -0.9799975346
H        0.2360351753   -0.6953238270    3.1255624089
H        0.6558492704   -2.0564400497    2.0790914627
H        1.2650409826   -0.4304986116    1.7138779433
H        2.9857851495   -0.1641962348   -2.0482786730
H        2.7291728708   -1.6048122153   -3.0748617471
H        1.8211526626   -0.0931017185   -3.3789117466
H       -1.7154042013   -1.2338848696    1.6486574071
H       -1.0703724672    0.3621093945    1.2447317132
H       -0.4968532461   -2.2447341153   -0.2306902172
H        1.0167959413   -2.2219168282   -1.6936164087
H       -2.0729005628   -0.0584447105   -1.0322402502
19   
torsion grid (150,)
C        0.5422925192   -0.4524325138   -0.9103438066
C        0.2985986405   -0.9441588507    2.2154795675
C        2.1872860649   -0.7241089927   -2.7424091487
C       -0.8603431457   -0.6954170545    1.2438246010
C       -0.5801922106   -1.1976013054   -0.1690033120
N        1.1990763387   -1.2232799668   -1.7960237972
O       -1.7513186890   -1.1389914981   -0.9984321094
S        0.8098454818    1.1842869757   -0.7431176181
H        0.0333344309   -0.6133691548    3.2244521239
H        0.5497694909   -2.0102872342    2.2718637649
H        1.1950559192   -0.3968106213    1.9104144942
H        2.9963148597   -0.2186163658   -2.2086939433
H        2.5886930799   -1.5701337941   -3.3039068400
H        1.7346069508   -0.0019757860   -3.4303089410
H       -1.7621919353   -1.2145788420    1.5864456271
H       -1.0876809163    0.3746763028    1.2008719595
H       -0.3303165986   -2.2650030720   -0.1258082374
H        0.8839601731   -2.1804989692   -1.9027560502
H       -1.9852396368   -0.1986537097   -1.0877059187
19   
torsion grid (165,)
C        0.6582550055   -0.4840291986   -0.8636605618
C        0.2011217882   -0.8895900080    2.3211082092
C        2.1288336898   -0.6925874637   -2.8474040755
C       -0.8596095757   -0.6711733460    1.2361373658
C       -0.4652002325   -1.2363408503   -0.1240421971
N        1.1696773401   -1.2061454910   -1.8798092303
O       -1.5921819710   -1.3191638328   -1.0183076666
S        1.1226359029    1.0796433047   -0.5301623112
H       -0.1553369000   -0.5153260531    3.2859749497
H        0.4298627637   -1.9552618296    2.4425578695
H        1.1281684660   -0.3637242149    2.0795646896
H        3.0344547316   -0.3564238336   -2.3357844140
H        2.3781093493   -1.4932361501   -3.5468006503
H        1.7142681389    0.1623136037   -3.3929907385
H       -1.7921906447   -1.1723925557    1.5178895410
H       -1.0716732737    0.3984233855    1.1337173894
H       -0.1500586698   -2.2790058264    0.0032959215
H        0.7030431241   -2.0797788852   -2.0976649189
H       -1.9206282153   -0.4131552075   -1.1487767559
19   
torsion grid (180,)
C        0.1490504185    0.1279081054   -0.8889459694
C       -1.8688518307   -1.6581503536    1.9865261487
C        0.7165677966    0.9852271030   -3.1433033230
C       -0.7537001997   -0.8237435452    1.3477437159
C       -0.9925038308   -0.5898630775   -0.1400251439
N       -0.1435192390    0.2937312297   -2.1947774120
O       -2.2383655783    0.0803101197   -0.4106622953
S        1.5868713074    0.6044136327   -0.2023534964
H       -1.6831838245   -1.7933654986    3.0567577685
H       -2.8459495565   -1.1807997884    1.8677173518
H       -1.9285082827   -2.6534267658    1.5306853249
H        1.6892064051    0.4890765490   -3.1986773534
H        0.2374972752    0.9642275003   -4.1243781548
H        0.8876508563    2.0230241235   -2.8359659213
H       -0.6545639082    0.1442275691    1.8543751515
H        0.2132214128   -1.3192469224    1.4664661636
H       -1.1134810967   -1.5663081213   -0.6254255475
H       -1.1080866764    0.1193310891   -2.4591499256
H       -2.2119935915    0.9369726503    0.0483907326
