8    
torsion grid (-165,)
C       -0.0193716433   -0.4793875496   -1.4011186794
N       -0.6870409388   -0.2971790376   -0.3239336370
N       -2.0284009438   -0.6053630355   -0.3395440786
O       -2.6811621102   -0.0363886703    0.7852919680
H        1.0472982865   -0.2744697991   -1.3677766062
H       -0.4554022750   -0.8442586903   -2.3383599737
H       -2.5010520946   -0.2359451542   -1.1700600622
H       -2.2698010774    0.8394912551    0.9248478432
8    
torsion grid (-150,)
C       -0.0385004839   -0.4528667075   -1.3839763416
N       -0.6687971233   -0.4250033994   -0.2688696984
N       -2.0202262441   -0.6688230634   -0.2878642583
O       -2.6714552560    0.0266536120    0.7641177336
H        1.0402482120   -0.3249773885   -1.3536714300
H       -0.5181129128   -0.6332777247   -2.3542421825
H       -2.4668941413   -0.3628275414   -1.1603315515
H       -2.2511948473    0.9076215312    0.8141845027
8    
torsion grid (-135,)
C       -0.0631833090   -0.4257140164   -1.3522867079
N       -0.6555584870   -0.5541939726   -0.2234779989
N       -2.0248649094   -0.7385061945   -0.2454065573
O       -2.6481186475    0.0871028768    0.7279354295
H        1.0219635298   -0.3578319978   -1.3494148392
H       -0.5848296154   -0.4314300260   -2.3189392048
H       -2.4355462918   -0.4700093863   -1.1504725609
H       -2.2047950665    0.9570820352    0.6814092135
8    
torsion grid (-120,)
C       -0.0928516803   -0.3980201245   -1.3114226814
N       -0.6506270900   -0.6817043526   -0.1941940965
N       -2.0420777934   -0.8077180002   -0.2092357073
O       -2.6100731428    0.1480875278    0.6787603199
H        0.9942399217   -0.3626716758   -1.3440411458
H       -0.6490221528   -0.2454605337   -2.2475468729
H       -2.4188215210   -0.5719860418   -1.1402607251
H       -2.1256993382    0.9859725192    0.5372876832
8    
torsion grid (-105,)
C       -0.1241422394   -0.3717051078   -1.2654630718
N       -0.6513298842   -0.8074678410   -0.1844219336
N       -2.0670112388   -0.8682571772   -0.1757946253
O       -2.5552291451    0.2075120615    0.6217188837
H        0.9626465434   -0.3499528501   -1.3330307722
H       -0.7067414703   -0.0715757454   -2.1495501309
H       -2.4209169711   -0.6713916751   -1.1258564266
H       -2.0322083912    0.9993376536    0.3817448506
8    
torsion grid (-90,)
C       -0.1518399316   -0.3466941736   -1.2199601693
N       -0.6526692251   -0.9267963937   -0.1979862902
N       -2.0909620811   -0.9154008658   -0.1404835688
O       -2.4904173860    0.2618632452    0.5612040951
H        0.9329365019   -0.3371713656   -1.3249703941
H       -0.7528330158    0.1009245155   -2.0271312861
H       -2.4418902431   -0.7719573842   -1.1011867425
H       -1.9472574160    1.0017317405    0.2198611300
8    
torsion grid (-75,)
C       -0.1611985552   -0.3279212541   -1.1826441681
N       -0.6500048237   -1.0389150553   -0.2442827261
N       -2.1015162950   -0.9434183253   -0.0974562748
O       -2.4229033889    0.3074828115    0.5136751375
H        0.9176198705   -0.3567583153   -1.3378503739
H       -0.7594077276    0.2880868428   -1.8734576132
H       -2.4863328617   -0.8734058886   -1.0520072191
H       -1.9311890152    1.0113485028    0.0433700117
8    
torsion grid (-60,)
C       -0.1370582764   -0.3167349974   -1.1582900503
N       -0.6534640531   -1.1312812173   -0.3287099933
N       -2.0883464283   -0.9501399022   -0.0536343202
O       -2.3550998285    0.3462328471    0.4859939126
H        0.9241223382   -0.4251891737   -1.3842273255
H       -0.6768618963    0.4922599241   -1.6746835520
H       -2.5531094858   -0.9783267893   -0.9710115220
H       -2.0551151666    1.0296786270   -0.1460903754
8    
torsion grid (-45,)
C       -0.1022182081   -0.3045490073   -1.1597983712
N       -0.6829175101   -1.1781428463   -0.4376295020
N       -2.0482461974   -0.9324965679   -0.0231443009
O       -2.2852752610    0.3954791688    0.4522105627
H        0.9177256706   -0.5177429678   -1.4786998397
H       -0.5203493845    0.6690302800   -1.4462614192
H       -2.6335888173   -1.0972039783   -0.8480230516
H       -2.2400630890    1.0321252372   -0.2893073041
8    
torsion grid (-30,)
C       -0.0683329075   -0.2774370465   -1.1605780782
N       -0.7414623154   -1.1809369234   -0.5537781308
N       -2.0066549270   -0.8997889151   -0.0432974677
O       -2.2618861459    0.4357902196    0.3803132975
H        0.9046361362   -0.5683339561   -1.5513389424
H       -0.3445768522    0.7795709259   -1.2191074431
H       -2.7241293208   -1.2424352656   -0.6808998010
H       -2.3525264642    1.0200702797   -0.4019666603
8    
torsion grid (-15,)
C       -0.0524742160   -0.2527327605   -1.1520893991
N       -0.7986072111   -1.1744612958   -0.6606913212
N       -1.9837669692   -0.8805783652   -0.0580949148
O       -2.2531502439    0.4605452647    0.3148548865
H        0.8780465233   -0.5733716349   -1.6133208542
H       -0.2309102550    0.8178976527   -1.0332179159
H       -2.7677655918   -1.3244429080   -0.5293042165
H       -2.3863048330    0.9936433654   -0.4987894908
8    
torsion grid (0,)
C       -0.0460478988   -0.2383347156   -1.1348058982
N       -0.8425738382   -1.1657482610   -0.7423634275
N       -1.9657637713   -0.8766685048   -0.0391245576
O       -2.2553215891    0.4794644981    0.2624397325
H        0.8465873617   -0.5570289465   -1.6660855894
H       -0.1633304534    0.8179088413   -0.8888551735
H       -2.7756991956   -1.3477095755   -0.4358082637
H       -2.3927834120    0.9546159824   -0.5860500487
8    
torsion grid (15,)
C       -0.0348780494   -0.2320941833   -1.1172388559
N       -0.8849258992   -1.1461096669   -0.8184887964
N       -1.9448344023   -0.8686543046   -0.0134977632
O       -2.2684881258    0.4983933139    0.2179150520
H        0.8164043310   -0.5399324208   -1.7180997447
H       -0.0942179979    0.7978166918   -0.7629987526
H       -2.7694134660   -1.3569186826   -0.3586590944
H       -2.4145791871    0.9139985708   -0.6595852708
8    
torsion grid (30,)
C       -0.0650202495   -0.4786377291   -1.1677868573
N       -1.0567623333    0.2964518510   -1.4148568680
N       -2.2972674214   -0.0161406676   -0.9284967194
O       -2.3430702024   -0.7458304503    0.3012953438
H        0.8796618892   -0.2261128701   -1.6418694431
H       -0.1281352781   -1.3628031955   -0.5311438462
H       -2.8048794453    0.8563818692   -0.7859700356
H       -1.7794597559   -0.2568094892    0.9381751997
8    
torsion grid (45,)
C       -0.0550477051   -0.4937267348   -1.1960362863
N       -1.0218057811    0.3357076435   -1.3346866591
N       -2.2841727205   -0.0613290115   -0.9222932451
O       -2.3324097135   -0.7140914909    0.3564548697
H        0.9088658978   -0.1935306189   -1.5997190792
H       -0.1495191407   -1.4559972403   -0.6877788065
H       -2.8312798875    0.7936504074   -0.8216295939
H       -1.8295637462   -0.1441836360    0.9750355744
8    
torsion grid (60,)
C       -0.0440166760   -0.5045591693   -1.2291743063
N       -0.9818489000    0.3655680313   -1.2452524157
N       -2.2626122701   -0.1169583206   -0.8997880508
O       -2.3128473753   -0.6723624344    0.4255172478
H        0.9439267279   -0.1732086654   -1.5425848826
H       -0.1830379784   -1.5369104486   -0.8972343921
H       -2.8525989994    0.7148078445   -0.8605252814
H       -1.9018973255   -0.0098775190    1.0183888552
8    
torsion grid (75,)
C       -0.0343594528   -0.5073994659   -1.2545077673
N       -0.9444336419    0.3815631951   -1.1412846609
N       -2.2381979302   -0.1852253669   -0.8683662872
O       -2.3007075704   -0.6195775036    0.4999310127
H        0.9779432281   -0.1650357052   -1.4646887097
H       -0.2253839690   -1.5775265603   -1.1316823956
H       -2.8681650965    0.6180414795   -0.9135967700
H       -1.9616283642    0.1216592457    1.0435423519
8    
torsion grid (90,)
C       -0.0212002171   -0.5116294917   -1.2821403836
N       -0.9074245705    0.3683244860   -1.0216124757
N       -2.2097775786   -0.2482914061   -0.8202626706
O       -2.3255477530   -0.5565909250    0.5762225561
H        1.0040782774   -0.1713322045   -1.4266236765
H       -0.2521160869   -1.5786829822   -1.3536631736
H       -2.8614500855    0.5272176555   -0.9665913884
H       -2.0214947826    0.2374841862    1.0640179863
8    
torsion grid (105,)
C       -0.0064927688   -0.5167039258   -1.3105813435
N       -0.8694969166    0.3251692183   -0.8963679729
N       -2.1801686203   -0.3057227993   -0.7608452573
O       -2.3838987405   -0.4911865770    0.6449452130
H        1.0220545407   -0.1740845801   -1.4267809906
H       -0.2632358029   -1.5541012872   -1.5442307180
H       -2.8267851769    0.4471592436   -1.0168487675
H       -2.0869093115    0.3359700259    1.0800566108
8    
torsion grid (120,)
C        0.0052352456   -0.5204819669   -1.3373106813
N       -0.8307311144    0.2590284920   -0.7737261769
N       -2.1501723691   -0.3590654920   -0.6934678506
O       -2.4602958553   -0.4234884957    0.7013912569
H        1.0322598355   -0.1704932034   -1.4450667730
H       -0.2731928115   -1.5105268709   -1.7095830045
H       -2.7697259956    0.3704399490   -1.0631870759
H       -2.1483097319    0.4210869063    1.0902970793
8    
torsion grid (135,)
C        0.0106418017   -0.5216494741   -1.3597565689
N       -0.7931387054    0.1753011999   -0.6577356079
N       -2.1197523268   -0.4101949262   -0.6215396115
O       -2.5381828804   -0.3515338148    0.7420215710
H        1.0345253012   -0.1625215887   -1.4632016213
H       -0.2911155287   -1.4478388954   -1.8571748941
H       -2.6991256074    0.2855653255   -1.1050482906
H       -2.1987848511    0.4993714923    1.0917817973
8    
torsion grid (150,)
C        0.0090298915   -0.5198096347   -1.3780381519
N       -0.7603462023    0.0757004075   -0.5532631013
N       -2.0928493427   -0.4595095067   -0.5490765189
O       -2.6076459742   -0.2718529754    0.7672541576
H        1.0330262545   -0.1585523798   -1.4628297570
H       -0.3187994253   -1.3599597291   -1.9973740964
H       -2.6289579948    0.1854198149   -1.1400625706
H       -2.2283900033    0.5750633217    1.0827368126
8    
torsion grid (165,)
C        0.0026054235   -0.5134500247   -1.3923306804
N       -0.7328093366   -0.0393828445   -0.4624045463
N       -2.0695605822   -0.5071034987   -0.4762727002
O       -2.6567341276   -0.1877607672    0.7810565749
H        1.0346883811   -0.1718611788   -1.4393963619
H       -0.3557843168   -1.2334835532   -2.1347572394
H       -2.5714587853    0.0624968677   -1.1644723953
H       -2.2458794530    0.6570443178    1.0579241226
8    
torsion grid (180,)
C       -0.0070069181   -0.5005972146   -1.4016643416
N       -0.7108019890   -0.1657258576   -0.3880573127
N       -2.0488178577   -0.5539907918   -0.4049061015
O       -2.6808418691   -0.1046641640    0.7871837266
H        1.0414894828   -0.2130224292   -1.3979883311
H       -0.4000488912   -1.0570273914   -2.2593095952
H       -2.5337939795   -0.0862103464   -1.1755872802
H       -2.2551107750    0.7477375133    1.0096760095
