17   
torsion grid (-165,)
C       -0.2452827321   -0.7406696165   -0.4819694860
C        0.6174919371   -0.0382154824    0.2707355996
C        2.0769802060   -0.4246708978    0.3237462492
C        0.2615045818    1.1601360861    1.1169757859
C       -1.7208806014   -0.5148853827   -0.6284355030
N       -4.1685688912    0.5286039727   -2.6600830362
N       -2.0423438145   -0.3817675474   -2.0830980729
N       -3.1614392471    0.0921823932   -2.3234708039
H        0.1360881211   -1.5832706980   -1.0577679414
H        2.7088905354    0.4033565910   -0.0216912403
H        2.2912002613   -1.3002664278   -0.2945166304
H        2.3851032337   -0.6473094187    1.3533234170
H        0.4410837235    0.9458002385    2.1780356555
H       -0.7764472296    1.4808266237    1.0127856041
H        0.9039827916    2.0098592373    0.8559790333
H       -2.2754089225   -1.3778851669   -0.2334155766
H       -2.0588914582    0.3727480591   -0.0863392806
17   
torsion grid (-150,)
C       -0.2532323472   -0.7874170772   -0.4628904892
C        0.6013721071   -0.0473933952    0.2628100640
C        2.0714366717   -0.3937041798    0.3009369852
C        0.2257161342    1.1572684577    1.0915475593
C       -1.7367300209   -0.6025036541   -0.5931518564
N       -3.9769365856    0.8010113166   -2.6550663225
N       -2.0882440372   -0.5183023921   -2.0454119725
N       -3.0802296991    0.1757398584   -2.3030301603
H        0.1420543009   -1.6306821881   -1.0282014370
H        2.6758326475    0.4441142429   -0.0692966775
H        2.3001155249   -1.2749199208   -0.3040141565
H        2.4002770773   -0.5884080958    1.3297534019
H        0.4287955187    0.9692527726    2.1533551518
H       -0.8224625347    1.4470211654    0.9992562364
H        0.8395848662    2.0192313504    0.8032447620
H       -2.2632187045   -1.4715008729   -0.1752532171
H       -2.0910684241    0.2857651753   -0.0637940983
17   
torsion grid (-135,)
C       -0.2706869086   -0.8277495101   -0.4411430408
C        0.5801361439   -0.0543731178    0.2539908364
C        2.0591511850   -0.3623335314    0.2660981664
C        0.1908782540    1.1535093978    1.0717732185
C       -1.7613590607   -0.6793651495   -0.5463616380
N       -3.7223686619    1.0277190628   -2.6699018867
N       -2.1526028489   -0.6311027469   -1.9908978457
N       -2.9721395100    0.2473355852   -2.2856266669
H        0.1335432774   -1.6696406024   -1.0020614901
H        2.6336751265    0.4839636461   -0.1314436181
H        2.2976214385   -1.2479582561   -0.3285574332
H        2.4147473245   -0.5304315382    1.2906878842
H        0.4216087954    0.9878749398    2.1316532404
H       -0.8663529728    1.4144115364    0.9982169094
H        0.7753512844    2.0265270964    0.7568746821
H       -2.2583334736   -1.5572432729   -0.1139570712
H       -2.1298068981    0.2034290243   -0.0185504734
17   
torsion grid (-120,)
C       -0.2928985317   -0.8728412120   -0.4167375487
C        0.5526351436   -0.0620499624    0.2420212786
C        2.0391201966   -0.3315855387    0.2283850678
C        0.1499611441    1.1549888378    1.0394713393
C       -1.7891938194   -0.7605708740   -0.4965144254
N       -3.4122017855    1.2358832663   -2.6531532949
N       -2.2200731517   -0.6959816412   -1.9295294339
N       -2.8346557815    0.3288466560   -2.2491625506
H        0.1211702863   -1.7157826926   -0.9687186160
H        2.5829488868    0.5208387364   -0.1981645087
H        2.2881446190   -1.2229192223   -0.3532766559
H        2.4203342152   -0.4692612411    1.2483142070
H        0.4117436488    1.0229377919    2.0968286931
H       -0.9154853399    1.3854455250    0.9859922218
H        0.7017813124    2.0352785078    0.6880123787
H       -2.2544228955   -1.6636247577   -0.0847428510
H       -2.1758456525    0.0949703842    0.0617684720
17   
torsion grid (-105,)
C       -0.3181123347   -0.9420374417   -0.3796797158
C        0.5176591064   -0.0770560498    0.2211990316
C        2.0102473203   -0.3069688357    0.1910605285
C        0.0958559568    1.1686057205    0.9625392689
C       -1.8178448307   -0.8610815101   -0.4454922469
N       -3.0364600301    1.4699075816   -2.5236665844
N       -2.2764788745   -0.6898274610   -1.8621700649
N       -2.6588110100    0.4513922607   -2.1508455954
H        0.1093985110   -1.7970757723   -0.9018590327
H        2.5219146050    0.5363253420   -0.2899529384
H        2.2729304340   -1.2204811976   -0.3486861313
H        2.4140741752   -0.3806951539    1.2088604463
H        0.3977475620    1.1080413445    2.0156386021
H       -0.9783711407    1.3582789880    0.9318031595
H        0.6020178778    2.0458164257    0.5416253648
H       -2.2570917339   -1.8083542570   -0.1178682180
H       -2.2256130986   -0.0702174206    0.1882878995
17   
torsion grid (-90,)
C       -0.3523272128   -0.9479099045   -0.3692442889
C        0.4857731190   -0.0718351169    0.2126316426
C        1.9808494073   -0.2717157752    0.1327314298
C        0.0635510343    1.1577937284    0.9799402273
C       -1.8545735012   -0.8931031303   -0.3927277560
N       -2.6687466283    1.5030190554   -2.5793669893
N       -2.3671782509   -0.7265345092   -1.7906361733
N       -2.5032417392    0.4519972047   -2.1488700876
H        0.0739360444   -1.7890881203   -0.9144658728
H        2.4601574861    0.5862093588   -0.3556651215
H        2.2439799708   -1.1746011976   -0.4244141758
H        2.4184292416   -0.3470389295    1.1363608089
H        0.4024325456    1.0934013172    2.0214742372
H       -1.0149325465    1.3239016304    0.9877655332
H        0.5364033462    2.0496322993    0.5511545398
H       -2.2715666445   -1.8478690436   -0.0607921313
H       -2.2598831768   -0.1116863039    0.2549179507
17   
torsion grid (-75,)
C       -0.3833301867   -0.9847874557   -0.3471194095
C        0.4494308368   -0.0776143671    0.1944663545
C        1.9460341700   -0.2456263156    0.0816565945
C        0.0174258733    1.1611321033    0.9416102800
C       -1.8863958547   -0.9483989845   -0.3444460994
N       -2.2694774830    1.5711065404   -2.5005252438
N       -2.4386073856   -0.6722376375   -1.7101329272
N       -2.3259526058    0.5086944706   -2.0712278799
H        0.0489165745   -1.8265491242   -0.8866780531
H        2.3930575068    0.6112876900   -0.4380134362
H        2.2163959666   -1.1551858485   -0.4609461859
H        2.4090891253   -0.2871849174    1.0757059565
H        0.4066009041    1.1441088629    1.9671912550
H       -1.0648942078    1.2888934142    0.9941695945
H        0.4357864595    2.0540370829    0.4616848947
H       -2.2910382456   -1.9298999125   -0.0882504422
H       -2.2899789524   -0.2272030378    0.3716485206
17   
torsion grid (-60,)
C       -0.4126339624   -0.9990715766   -0.3342721759
C        0.4178790691   -0.0756047250    0.1834222308
C        1.9137228399   -0.2175241109    0.0336721037
C       -0.0188762989    1.1584204473    0.9353388091
C       -1.9150492302   -0.9766720058   -0.3031841636
N       -1.9140500722    1.5402001747   -2.4967246965
N       -2.5101487271   -0.5986802693   -1.6273689855
N       -2.1717703796    0.5236853352   -2.0322232196
H        0.0214457995   -1.8336295458   -0.8835642992
H        2.3330193069    0.6481391970   -0.4942928923
H        2.1861501368   -1.1210274605   -0.5179447242
H        2.4011523549   -0.2536167581    1.0161708754
H        0.4202421044    1.1685432260    1.9405105642
H       -1.1011186778    1.2506297126    1.0387444109
H        0.3446540537    2.0575808366    0.4235767732
H       -2.3125402680   -1.9751056656   -0.1121673534
H       -2.3090155540   -0.3116942483    0.4711005161
17   
torsion grid (-45,)
C       -0.4304303918   -1.0167455876   -0.3256811334
C        0.3947286753   -0.0775994879    0.1723537004
C        1.8899446462   -0.1970406463    0.0031808277
C       -0.0547157425    1.1575831100    0.9144024729
C       -1.9320620944   -1.0015273251   -0.2732500148
N       -1.6350604116    1.4975562017   -2.4830456897
N       -2.5688598207   -0.4770031049   -1.5284440774
N       -2.0495337144    0.5531830512   -1.9807919292
H        0.0076323621   -1.8483146806   -0.8761804421
H        2.2873664342    0.6693546730   -0.5400830686
H        2.1693561111   -1.1021138726   -0.5422958914
H        2.3910571621   -0.2140090318    0.9792470259
H        0.4180634173    1.2032459390    1.9030822207
H       -1.1355071940    1.2174941746    1.0521235726
H        0.2611347793    2.0562212714    0.3710038045
H       -2.3284330840   -2.0137882713   -0.1787867739
H       -2.3116186391   -0.4219238495    0.5739591690
17   
torsion grid (-30,)
C       -0.4401613252   -1.0237464242   -0.3227384881
C        0.3825792366   -0.0776614022    0.1659684851
C        1.8770375718   -0.1836355391   -0.0133867726
C       -0.0783274421    1.1561394150    0.9026936522
C       -1.9410188007   -1.0099691840   -0.2503337617
N       -1.4603729058    1.4217812538   -2.5244146735
N       -2.6164305264   -0.3426864350   -1.4165971578
N       -1.9751443418    0.5689609270   -1.9546247965
H       -0.0014757978   -1.8532426704   -0.8756475579
H        2.2623047011    0.6847367654   -0.5620461139
H        2.1609535724   -1.0876873899   -0.5582134875
H        2.3847399751   -0.1929960517    0.9593305583
H        0.4119301721    1.2239698001    1.8814582509
H       -1.1578287968    1.1938298691    1.0587684558
H        0.2071692839    2.0545289760    0.3422658433
H       -2.3396864202   -2.0260513819   -0.2514935488
H       -2.3032056611   -0.5216979648    0.6598048860
17   
torsion grid (-15,)
C       -0.4416928370   -1.0298630283   -0.3210366273
C        0.3782961665   -0.0780457568    0.1605787789
C        1.8727155223   -0.1749754488   -0.0195916600
C       -0.0962138992    1.1557530712    0.8880185013
C       -1.9426733480   -1.0141418730   -0.2348506898
N       -1.3702742369    1.3483296876   -2.5773126904
N       -2.6415903383   -0.2018528889   -1.2913147732
N       -1.9360935986    0.5868314757   -1.9308832373
H       -0.0024997504   -1.8618658592   -0.8692932206
H        2.2511078340    0.6908871058   -0.5768262477
H        2.1622137039   -1.0820760130   -0.5563698606
H        2.3814516574   -0.1716861517    0.9526244931
H        0.3869769345    1.2326115319    1.8696680201
H       -1.1774357616    1.1844398383    1.0351351982
H        0.1858656884    2.0535453676    0.3248347951
H       -2.3460998740   -2.0235115451   -0.3413563406
H       -2.2909913677   -0.6298069498    0.7287693339
17   
torsion grid (0,)
C       -0.2655756302   -0.6858354977   -0.6377982780
C        0.5334354756   -0.0810954864    0.2596832284
C        1.9651006354   -0.5154342917    0.4483275120
C        0.0796730772    1.0411402721    1.1600739886
C       -1.7147366926   -0.3537958693   -0.8724903231
N       -1.8406670064   -2.0509511171    2.0479804560
N       -2.6778672364   -0.8442816805    0.1733956821
N       -2.1915453726   -1.4702932607    1.1217999645
H        0.1378245790   -1.5158337537   -1.2153669048
H        2.6513400110    0.3205539384    0.2634854080
H        2.2349506234   -1.3368102945   -0.2205151891
H        2.1365161879   -0.8420334423    1.4815095145
H        0.1127597588    0.7172855320    2.2076080453
H       -0.9372014834    1.3785029913    0.9505499981
H        0.7546794804    1.9010808779    1.0731922261
H       -1.8795923089    0.7259669793   -0.9339785545
H       -2.0571058372   -0.7827899442   -1.8179774340
17   
torsion grid (15,)
C       -0.2680531741   -0.6872450595   -0.6366223379
C        0.5323539322   -0.0815039347    0.2593593492
C        1.9635335912   -0.5199519023    0.4453305521
C        0.0899778269    1.0456856174    1.1595247450
C       -1.7163595572   -0.3609976548   -0.8744500586
N       -1.8564979986   -1.9496750407    2.1007154080
N       -2.6877193451   -0.9998422532    0.0808517016
N       -2.2046824742   -1.4787488842    1.1133371153
H        0.1344383250   -1.5219450496   -1.2084410749
H        2.6518505004    0.3136307983    0.2573355851
H        2.2294181143   -1.3432194425   -0.2227251866
H        2.1363260661   -0.8451082483    1.4787155614
H        0.1416041285    0.7285510013    2.2081936765
H       -0.9307345326    1.3807869692    0.9660203228
H        0.7608367846    1.9070130066    1.0553758565
H       -1.9037600320    0.7162225657   -0.8284252721
H       -2.0305438942   -0.6982765361   -1.8646166029
17   
torsion grid (30,)
C       -0.2672732607   -0.6872869345   -0.6296923896
C        0.5372140148   -0.0778905803    0.2603944755
C        1.9692552390   -0.5188808036    0.4381369699
C        0.1106720728    1.0572516433    1.1587209236
C       -1.7175343397   -0.3733394192   -0.8666991379
N       -1.9439444851   -1.8658976911    2.1393983820
N       -2.6744288557   -1.1631154008   -0.0168867724
N       -2.2472978803   -1.5010061336    1.0945133352
H        0.1336355441   -1.5254427069   -1.1980140332
H        2.6583315923    0.3117830042    0.2401448053
H        2.2283447745   -1.3466360010   -0.2270315159
H        2.1490379645   -0.8383622514    1.4721273559
H        0.1880007547    0.7518346769    2.2091661968
H       -0.9146354514    1.3890578092    0.9862427097
H        0.7761220617    1.9194660567    1.0295054298
H       -1.9388433675    0.6868036832   -0.7084206548
H       -2.0046681169   -0.6129629984   -1.8921267394
17   
torsion grid (45,)
C       -0.2591440727   -0.6892710851   -0.6209983579
C        0.5503050983   -0.0738564504    0.2604656851
C        1.9864811781   -0.5093821211    0.4225684483
C        0.1358755486    1.0645652997    1.1607746489
C       -1.7143392286   -0.3936291552   -0.8509598818
N       -2.1132047747   -1.7762465612    2.1732801889
N       -2.6367951929   -1.3158970938   -0.1062058979
N       -2.3232265043   -1.5182668119    1.0754529269
H        0.1418690420   -1.5254254213   -1.1923900763
H        2.6705064025    0.3233172090    0.2156201080
H        2.2411630776   -1.3371306328   -0.2443223882
H        2.1794500096   -0.8266076398    1.4549689603
H        0.2461962168    0.7700166204    2.2113281820
H       -0.8965677661    1.3859658124    1.0143828614
H        0.7884487089    1.9323725166    1.0053618589
H       -1.9741696821    0.6372999454   -0.5912622542
H       -1.9808597999   -0.5424484782   -1.8985856719
17   
torsion grid (60,)
C       -0.2451808483   -0.6956099130   -0.5985182330
C        0.5749598178   -0.0666144715    0.2630448793
C        2.0178926807   -0.4904231845    0.3988860829
C        0.1749483705    1.0793119656    1.1606971565
C       -1.7059751734   -0.4177268726   -0.8166491480
N       -2.3935664731   -1.7314270833    2.1747353884
N       -2.5871365897   -1.4550028087   -0.1857919011
N       -2.4503516528   -1.5557932675    1.0427433296
H        0.1524980963   -1.5313244837   -1.1730374569
H        2.6916930030    0.3447196125    0.1692403018
H        2.2644338452   -1.3228565355   -0.2652544348
H        2.2353841527   -0.7961590447    1.4299773400
H        0.3389285858    0.8081247898    2.2105080964
H       -0.8691892712    1.3775756574    1.0546292289
H        0.8008722902    1.9576516297    0.9605696687
H       -2.0027949541    0.5724604308   -0.4584035090
H       -1.9554276186   -0.4715304681   -1.8778974493
17   
torsion grid (75,)
C       -0.2206070073   -0.7078898286   -0.5773933884
C        0.6080218044   -0.0618499391    0.2627124331
C        2.0616011248   -0.4589488621    0.3637621686
C        0.2111657095    1.0799965100    1.1671638426
C       -1.6891850445   -0.4526676868   -0.7740450531
N       -2.7426335829   -1.6679629671    2.1511601080
N       -2.5262412093   -1.5662766990   -0.2213310028
N       -2.6062297514   -1.5718640764    1.0160958548
H        0.1779844865   -1.5361447697   -1.1618940308
H        2.7145477342    0.3892861395    0.1220204495
H        2.3084708006   -1.2844092595   -0.3089064447
H        2.3085724413   -0.7639668541    1.3885331469
H        0.4338487507    0.8271101409    2.2107617668
H       -0.8462985324    1.3421538189    1.1075896344
H        0.7963370690    1.9770109306    0.9294696753
H       -2.0126800429    0.5011214638   -0.3480961775
H       -1.9346864894   -0.4393221088   -1.8381236422
17   
torsion grid (90,)
C       -0.1957431472   -0.7217551558   -0.5416977179
C        0.6451662851   -0.0514591803    0.2659563341
C        2.1080867600   -0.4224127554    0.3273914732
C        0.2566495325    1.0950571128    1.1679553133
C       -1.6715851620   -0.4900575515   -0.7116317015
N       -3.1283628556   -1.6601401637    2.0617847812
N       -2.4634543095   -1.6664383321   -0.2276582192
N       -2.7808830769   -1.6118930627    0.9688859201
H        0.2003881732   -1.5480433621   -1.1306360078
H        2.7390166972    0.4333377531    0.0553198348
H        2.3485283929   -1.2521060602   -0.3424209200
H        2.3916620003   -0.7102922865    1.3476963886
H        0.5315449779    0.8672413822    2.2049722011
H       -0.8090917911    1.3287629902    1.1501339900
H        0.8061298249    2.0031688442    0.8902735621
H       -2.0156134955    0.4252736951   -0.2235100796
H       -1.9204505450   -0.4128679146   -1.7733358121
17   
torsion grid (105,)
C       -0.1748269671   -0.7360050889   -0.4981295311
C        0.6826022116   -0.0424971646    0.2708386615
C        2.1520872688   -0.3919777824    0.2878119352
C        0.3088120301    1.1132209631    1.1673868954
C       -1.6565300212   -0.5219280956   -0.6341071808
N       -3.5070821164   -1.6719793557    1.9135654474
N       -2.4069520616   -1.7438110796   -0.1993125160
N       -2.9566114558   -1.6512219115    0.9059451875
H        0.2130935697   -1.5636868379   -1.0906620701
H        2.7609896238    0.4678600653   -0.0192164282
H        2.3813843206   -1.2288727118   -0.3769023501
H        2.4745478377   -0.6596642160    1.3021042675
H        0.6284936502    0.9094574985    2.1965938238
H       -0.7608457670    1.3284867131    1.1871591938
H        0.8298435702    2.0259879320    0.8524702457
H       -2.0069260296    0.3569746681   -0.0882373137
H       -1.9200914031   -0.3849676432   -1.6878289273
17   
torsion grid (120,)
C       -0.3762535437   -0.5574158278   -0.4551160672
C        0.5922568733    0.0023867196    0.2900720901
C        2.0050631250   -0.5283277808    0.2321693595
C        0.4037598018    1.1699089266    1.2277839715
C       -1.8250781605   -0.1636473846   -0.5097180053
N       -3.8473320099   -0.7390973422   -3.1389154365
N       -2.1672458730    0.3726519543   -1.8657047444
N       -3.0475597634   -0.2453280581   -2.4789481948
H       -0.1097767785   -1.3870022925   -1.1097048866
H        2.6980822790    0.2540516917   -0.1022754009
H        2.0957726422   -1.3798188562   -0.4472985287
H        2.3440133763   -0.8446009287    1.2269283260
H        0.6175253064    0.8694542718    2.2612572904
H       -0.5997764851    1.5972673100    1.2019175694
H        1.1138878523    1.9682295456    0.9801658402
H       -2.4609959000   -1.0273738896   -0.2795921931
H       -2.0632802472    0.6232345045    0.2077727836
17   
torsion grid (135,)
C       -0.3318785274   -0.5890191349   -0.4700011063
C        0.6100393616   -0.0051974876    0.2904367680
C        2.0315151838   -0.5154254921    0.2749198059
C        0.3819824881    1.1726237280    1.2062261073
C       -1.7847345033   -0.2217918191   -0.5616714610
N       -4.0640936270   -0.5354740450   -3.0146413216
N       -2.0948877140    0.2714865812   -1.9412277104
N       -3.1319534721   -0.1798138150   -2.4462777758
H       -0.0384430806   -1.4229615365   -1.1068753535
H        2.7211034920    0.2721642028   -0.0543323198
H        2.1510513820   -1.3753211256   -0.3892823711
H        2.3506428039   -0.8119996947    1.2822472975
H        0.5710482717    0.8893336666    2.2493237940
H       -0.6256135051    1.5869214164    1.1469271453
H        1.0888874802    1.9762090096    0.9665893299
H       -2.4077158639   -1.0960323450   -0.3340563763
H       -2.0538876749    0.5688704543    0.1424893211
17   
torsion grid (150,)
C       -0.2944763826   -0.6306872305   -0.4785465122
C        0.6214772464   -0.0151540640    0.2882084790
C        2.0516298411   -0.5004377543    0.3113173066
C        0.3547748158    1.1768267012    1.1748100192
C       -1.7512989056   -0.2943251331   -0.6030525248
N       -4.2121884586   -0.2814208242   -2.8853914608
N       -2.0385893256    0.1466993424   -2.0045295487
N       -3.1848558627   -0.0995256324   -2.4066146359
H        0.0255793118   -1.4716707656   -1.0926783710
H        2.7340675061    0.2926030375   -0.0196984372
H        2.1993850944   -1.3709234255   -0.3331002653
H        2.3552834065   -0.7715969670    1.3305204812
H        0.5290427512    0.9188559109    2.2270064879
H       -0.6589496478    1.5709520339    1.0880563333
H        1.0513848532    1.9882577113    0.9314753873
H       -2.3587839758   -1.1783196778   -0.3678931621
H       -2.0504197729    0.5044393005    0.0809041968
17   
torsion grid (165,)
C       -0.2634714170   -0.6505749547   -0.4978802267
C        0.6287600023   -0.0185542178    0.2827604597
C        2.0667060422   -0.4790705381    0.3286947802
C        0.3274001286    1.1668312693    1.1673816758
C       -1.7248976365   -0.3461991891   -0.6412660781
N       -4.3002244825   -0.0545944225   -2.7631198126
N       -2.0169742980   -0.0432115820   -2.0764672636
N       -3.2202460921   -0.0627214984   -2.3747293082
H        0.0798110239   -1.4881705189   -1.1040316321
H        2.7408387499    0.3270974912    0.0127293328
H        2.2405600852   -1.3440145021   -0.3166560846
H        2.3576121051   -0.7495892303    1.3517941492
H        0.4819609273    0.9065807703    2.2221127282
H       -0.6899211297    1.5472444674    1.0618879881
H        1.0181888223    1.9885762415    0.9428708076
H       -2.3191939732   -1.2172219587   -0.3315693208
H       -2.0338463626    0.5021649363   -0.0237184218
17   
torsion grid (180,)
C       -0.2478712182   -0.6969629369   -0.4934318289
C        0.6265744249   -0.0287780017    0.2769226142
C        2.0751707090   -0.4533992697    0.3346822551
C        0.2945383944    1.1649930760    1.1391047302
C       -1.7158530057   -0.4318815513   -0.6458201290
N       -4.2789473807    0.2433160308   -2.6881795910
N       -2.0151493109   -0.2122228981   -2.0944358566
N       -3.2075044463    0.0177644591   -2.3438410922
H        0.1170817148   -1.5384692849   -1.0812995679
H        2.7306212481    0.3629135994    0.0056920098
H        2.2715450931   -1.3254142620   -0.2944744360
H        2.3696650635   -0.6983459636    1.3631797399
H        0.4541306984    0.9280594018    2.1985650081
H       -0.7320296831    1.5177073400    1.0265611098
H        0.9647945464    1.9996009417    0.9002608773
H       -2.2917353633   -1.3008067033   -0.2967421181
H       -2.0419689893    0.4364985859   -0.0659499516
