25
0 1 C7H10N2O4S2
C                     1.557800006224     1.060526513870     2.905445062136
C                     1.226949248764    -0.025273598833     2.174710755509
C                     3.563999941192    -0.267593024824     2.164771357547
C                    -1.326445216707     0.206486455758     2.226426371166
C                    -3.691003085598     0.194780479055     2.195725499109
C                     6.255234269535    -2.931107436882     1.898679656096
C                    -0.107265734050    -0.555799851550     1.739865658683
N                     4.770166850403    -0.732508849485     1.963999549988
N                     2.350489819748    -0.748447582402     1.757760526910
O                    -1.334642473331     1.231402539580     2.878105148005
O                     3.763712283057    -2.913167562134     0.961786655492
O                     5.544379684893    -1.644880444909    -0.310752861004
O                    -2.443470240367    -0.429724243667     1.814608357160
S                     3.301029353388     1.205122874326     3.099083761982
S                     4.982999283940    -2.057982930758     0.979157410734
H                     0.881435334761     1.785342407320     3.329689956250
H                    -4.470518863125    -0.443055434711     1.780924825382
H                    -3.752133012545     1.202402189074     1.779142641204
H                    -3.770710482332     0.246479113415     3.283651882887
H                     6.523394720499    -3.806067457663     1.304207110648
H                     7.107616944623    -2.261279061782     2.011624800435
H                     5.849052548460    -3.223789113104     2.866815771353
H                    -0.220965606801    -1.598345357726     2.061061059341
H                    -0.157845962958    -0.585104489537     0.644083416958
H                     2.330664925815    -1.660219286665     1.294269443096
