
  -OEChem-12122420523D

 24 24  0     0  0  0  0  0  0999 V2000
    2.6126    0.6916   -3.1672 C   0  0  0  0  0  0  0  0  0  0  0  0
    1.9416   -0.4703   -3.4210 C   0  0  0  0  0  0  0  0  0  0  0  0
    4.0054   -1.3379   -3.6022 C   0  0  0  0  0  0  0  0  0  0  0  0
    0.1492   -1.8677   -2.5258 C   0  0  0  0  0  0  0  0  0  0  0  0
    0.4804   -4.2166   -2.5513 C   0  0  0  0  0  0  0  0  0  0  0  0
    3.7500   -3.9782   -5.3929 C   0  0  0  0  0  0  0  0  0  0  0  0
    0.4381   -0.6539   -3.3938 C   0  0  0  0  0  0  0  0  0  0  0  0
    2.7051   -1.5849   -3.6768 N   0  0  0  0  0  0  0  0  0  0  0  0
    5.0580   -2.1494   -3.7736 N   0  5  0  0  0  0  0  0  0  0  0  0
   -0.0109   -1.8345   -1.3186 O   0  0  0  0  0  0  0  0  0  0  0  0
    3.9680   -4.3180   -2.7819 O   0  0  0  0  0  0  0  0  0  0  0  0
    6.0619   -4.4064   -4.1863 O   0  0  0  0  0  0  0  0  0  0  0  0
    0.1574   -3.0003   -3.2630 O   0  0  0  0  0  0  0  0  0  0  0  0
    4.3440    0.3980   -3.2345 S   0  0  0  0  0  0  0  0  0  0  0  0
    4.7663   -3.7548   -3.9004 S   0  0  0  0  0  0  0  0  0  0  0  0
    2.2053    1.6632   -2.9188 H   0  0  0  0  0  0  0  0  0  0  0  0
    0.2017   -5.0320   -3.2214 H   0  0  0  0  0  0  0  0  0  0  0  0
   -0.0798   -4.2786   -1.6156 H   0  0  0  0  0  0  0  0  0  0  0  0
    1.5592   -4.2307   -2.3694 H   0  0  0  0  0  0  0  0  0  0  0  0
    3.5845   -5.0525   -5.5026 H   0  0  0  0  0  0  0  0  0  0  0  0
    2.8122   -3.4417   -5.2475 H   0  0  0  0  0  0  0  0  0  0  0  0
    4.3106   -3.5865   -6.2440 H   0  0  0  0  0  0  0  0  0  0  0  0
   -0.0483    0.2239   -2.9641 H   0  0  0  0  0  0  0  0  0  0  0  0
    0.0591   -0.8335   -4.4056 H   0  0  0  0  0  0  0  0  0  0  0  0
  1  2  2  0  0  0  0
  1 14  1  0  0  0  0
  1 16  1  0  0  0  0
  2  7  1  0  0  0  0
  2  8  1  0  0  0  0
  3  8  2  0  0  0  0
  3  9  1  0  0  0  0
  3 14  1  0  0  0  0
  4  7  1  0  0  0  0
  4 10  2  0  0  0  0
  4 13  1  0  0  0  0
  5 13  1  0  0  0  0
  5 17  1  0  0  0  0
  5 18  1  0  0  0  0
  5 19  1  0  0  0  0
  6 15  1  0  0  0  0
  6 20  1  0  0  0  0
  6 21  1  0  0  0  0
  6 22  1  0  0  0  0
  7 23  1  0  0  0  0
  7 24  1  0  0  0  0
  9 15  1  0  0  0  0
 11 15  2  0  0  0  0
 12 15  2  0  0  0  0
M  CHG  1   9  -1
M  END
$$$$
