
  -OEChem-12122420523D

 25 25  0     0  0  0  0  0  0999 V2000
    1.2597    0.8755    3.0125 C   0  0  0  0  0  0  0  0  0  0  0  0
    0.8397    0.2934    1.8692 C   0  0  0  0  0  0  0  0  0  0  0  0
    3.1528    0.2983    1.4569 C   0  0  0  0  0  0  0  0  0  0  0  0
   -1.6875    0.3038    2.3059 C   0  0  0  0  0  0  0  0  0  0  0  0
   -4.0424    0.2125    2.5019 C   0  0  0  0  0  0  0  0  0  0  0  0
    5.6381    0.3604   -1.4108 C   0  0  0  0  0  0  0  0  0  0  0  0
   -0.5363   -0.0568    1.3846 C   0  0  0  0  0  0  0  0  0  0  0  0
    4.3191    0.1504    0.8831 N   0  0  0  0  0  0  0  0  0  0  0  0
    1.9014   -0.0344    1.0181 N   0  0  0  0  0  0  0  0  0  0  0  0
   -1.6127    0.8423    3.3920 O   0  0  0  0  0  0  0  0  0  0  0  0
    4.9921   -1.9920   -0.3670 O   0  0  0  0  0  0  0  0  0  0  0  0
    3.1417   -0.5589   -1.3268 O   0  0  0  0  0  0  0  0  0  0  0  0
   -2.8509   -0.0694    1.7321 O   0  0  0  0  0  0  0  0  0  0  0  0
    3.0117    1.0362    3.0527 S   0  0  0  0  0  0  0  0  0  0  0  0
    4.4204   -0.6572   -0.5694 S   0  0  0  0  0  0  0  0  0  0  0  0
    0.6440    1.2095    3.8324 H   0  0  0  0  0  0  0  0  0  0  0  0
   -4.8702   -0.1510    1.8943 H   0  0  0  0  0  0  0  0  0  0  0  0
   -4.1332    1.2864    2.6781 H   0  0  0  0  0  0  0  0  0  0  0  0
   -4.0059   -0.3106    3.4598 H   0  0  0  0  0  0  0  0  0  0  0  0
    5.8298   -0.1164   -2.3735 H   0  0  0  0  0  0  0  0  0  0  0  0
    5.2269    1.3611   -1.5434 H   0  0  0  0  0  0  0  0  0  0  0  0
    6.5403    0.3796   -0.7995 H   0  0  0  0  0  0  0  0  0  0  0  0
   -0.6001   -1.1337    1.1861 H   0  0  0  0  0  0  0  0  0  0  0  0
   -0.7281    0.4257    0.4180 H   0  0  0  0  0  0  0  0  0  0  0  0
    1.8087   -0.3778    0.0589 H   0  0  0  0  0  0  0  0  0  0  0  0
  1  2  2  0  0  0  0
  1 14  1  0  0  0  0
  1 16  1  0  0  0  0
  2  7  1  0  0  0  0
  2  9  1  0  0  0  0
  3  8  2  0  0  0  0
  3  9  1  0  0  0  0
  3 14  1  0  0  0  0
  4  7  1  0  0  0  0
  4 10  2  0  0  0  0
  4 13  1  0  0  0  0
  5 13  1  0  0  0  0
  5 17  1  0  0  0  0
  5 18  1  0  0  0  0
  5 19  1  0  0  0  0
  6 15  1  0  0  0  0
  6 20  1  0  0  0  0
  6 21  1  0  0  0  0
  6 22  1  0  0  0  0
  7 23  1  0  0  0  0
  7 24  1  0  0  0  0
  8 15  1  0  0  0  0
  9 25  1  0  0  0  0
 11 15  2  0  0  0  0
 12 15  2  0  0  0  0
M  END
$$$$
