
  -OEChem-12122420523D

 25 25  0     0  0  0  0  0  0999 V2000
    5.1003    1.4813   -4.9852 C   0  0  0  0  0  0  0  0  0  0  0  0
    4.6207    0.7734   -3.9182 C   0  0  0  0  0  0  0  0  0  0  0  0
    6.0928   -0.7108   -4.6612 C   0  0  0  0  0  0  0  0  0  0  0  0
    2.9136    2.5175   -3.0888 C   0  0  0  0  0  0  0  0  0  0  0  0
    1.3548    4.0019   -2.1081 C   0  0  0  0  0  0  0  0  0  0  0  0
    5.2996   -3.2631   -6.4920 C   0  0  0  0  0  0  0  0  0  0  0  0
    3.5682    1.1623   -2.9166 C   0  0  0  0  0  0  0  0  0  0  0  0
    5.1863   -0.4828   -3.7505 N   0  0  0  0  0  0  0  0  0  0  0  0
    6.8718   -1.8777   -4.6551 N   0  0  0  0  0  0  0  0  0  0  0  0
    3.0902    3.3101   -3.9940 O   0  0  0  0  0  0  0  0  0  0  0  0
    7.5291   -1.9761   -7.1095 O   0  0  0  0  0  0  0  0  0  0  0  0
    7.6898   -4.0537   -5.6156 O   0  0  0  0  0  0  0  0  0  0  0  0
    2.0596    2.7420   -2.0632 O   0  0  0  0  0  0  0  0  0  0  0  0
    6.3403    0.5821   -5.8126 S   0  0  0  0  0  0  0  0  0  0  0  0
    7.0038   -2.8443   -6.0604 S   0  0  0  0  0  0  0  0  0  0  0  0
    4.7830    2.4526   -5.3335 H   0  0  0  0  0  0  0  0  0  0  0  0
    0.7243    4.0122   -1.2195 H   0  0  0  0  0  0  0  0  0  0  0  0
    0.7472    4.0657   -3.0136 H   0  0  0  0  0  0  0  0  0  0  0  0
    2.0623    4.8338   -2.0894 H   0  0  0  0  0  0  0  0  0  0  0  0
    5.3457   -3.8431   -7.4153 H   0  0  0  0  0  0  0  0  0  0  0  0
    4.8701   -3.8557   -5.6836 H   0  0  0  0  0  0  0  0  0  0  0  0
    4.7433   -2.3384   -6.6502 H   0  0  0  0  0  0  0  0  0  0  0  0
    2.7711    0.4095   -2.9133 H   0  0  0  0  0  0  0  0  0  0  0  0
    3.9938    1.1209   -1.9078 H   0  0  0  0  0  0  0  0  0  0  0  0
    6.7050   -2.4449   -3.8243 H   0  0  0  0  0  0  0  0  0  0  0  0
  1  2  2  0  0  0  0
  1 14  1  0  0  0  0
  1 16  1  0  0  0  0
  2  7  1  0  0  0  0
  2  8  1  0  0  0  0
  3  8  2  0  0  0  0
  3  9  1  0  0  0  0
  3 14  1  0  0  0  0
  4  7  1  0  0  0  0
  4 10  2  0  0  0  0
  4 13  1  0  0  0  0
  5 13  1  0  0  0  0
  5 17  1  0  0  0  0
  5 18  1  0  0  0  0
  5 19  1  0  0  0  0
  6 15  1  0  0  0  0
  6 20  1  0  0  0  0
  6 21  1  0  0  0  0
  6 22  1  0  0  0  0
  7 23  1  0  0  0  0
  7 24  1  0  0  0  0
  9 15  1  0  0  0  0
  9 25  1  0  0  0  0
 11 15  2  0  0  0  0
 12 15  2  0  0  0  0
M  END
$$$$
