
  -OEChem-12102412483D

 25 25  0     0  0  0  0  0  0999 V2000
    4.4003    0.9006   -5.3739 C   0  0  0  0  0  0  0  0  0  0  0  0
    3.9690    0.0725   -4.3778 C   0  0  0  0  0  0  0  0  0  0  0  0
    5.7170   -1.1228   -5.0339 C   0  0  0  0  0  0  0  0  0  0  0  0
    1.9791   -1.1021   -3.5266 C   0  0  0  0  0  0  0  0  0  0  0  0
    1.0620   -2.7616   -4.9420 C   0  0  0  0  0  0  0  0  0  0  0  0
    5.6425   -4.0185   -3.2608 C   0  0  0  0  0  0  0  0  0  0  0  0
    2.7358    0.2221   -3.5284 C   0  0  0  0  0  0  0  0  0  0  0  0
    4.7394   -1.0581   -4.1793 N   0  0  0  0  0  0  0  0  0  0  0  0
    6.5898   -2.2108   -5.0749 N   0  0  0  0  0  0  0  0  0  0  0  0
    1.7816   -1.7883   -2.5438 O   0  0  0  0  0  0  0  0  0  0  0  0
    4.6160   -3.8437   -5.7012 O   0  0  0  0  0  0  0  0  0  0  0  0
    7.0227   -4.6526   -5.4743 O   0  0  0  0  0  0  0  0  0  0  0  0
    1.5921   -1.4280   -4.7759 O   0  0  0  0  0  0  0  0  0  0  0  0
    5.8073    0.2248   -6.1566 S   0  0  0  0  0  0  0  0  0  0  0  0
    5.9112   -3.8129   -5.0237 S   0  0  0  0  0  0  0  0  0  0  0  0
    3.9837    1.8434   -5.7024 H   0  0  0  0  0  0  0  0  0  0  0  0
    0.7367   -2.8159   -5.9804 H   0  0  0  0  0  0  0  0  0  0  0  0
    0.2252   -2.9302   -4.2611 H   0  0  0  0  0  0  0  0  0  0  0  0
    1.8526   -3.4919   -4.7555 H   0  0  0  0  0  0  0  0  0  0  0  0
    5.2200   -5.0171   -3.1339 H   0  0  0  0  0  0  0  0  0  0  0  0
    6.6067   -3.9318   -2.7605 H   0  0  0  0  0  0  0  0  0  0  0  0
    4.9444   -3.2450   -2.9408 H   0  0  0  0  0  0  0  0  0  0  0  0
    2.9930    0.4516   -2.4918 H   0  0  0  0  0  0  0  0  0  0  0  0
    2.0978    1.0167   -3.9236 H   0  0  0  0  0  0  0  0  0  0  0  0
    7.3326   -2.1870   -5.7705 H   0  0  0  0  0  0  0  0  0  0  0  0
  1  2  2  0  0  0  0
  1 14  1  0  0  0  0
  1 16  1  0  0  0  0
  2  7  1  0  0  0  0
  2  8  1  0  0  0  0
  3  8  2  0  0  0  0
  3  9  1  0  0  0  0
  3 14  1  0  0  0  0
  4  7  1  0  0  0  0
  4 10  2  0  0  0  0
  4 13  1  0  0  0  0
  5 13  1  0  0  0  0
  5 17  1  0  0  0  0
  5 18  1  0  0  0  0
  5 19  1  0  0  0  0
  6 15  1  0  0  0  0
  6 20  1  0  0  0  0
  6 21  1  0  0  0  0
  6 22  1  0  0  0  0
  7 23  1  0  0  0  0
  7 24  1  0  0  0  0
  9 15  1  0  0  0  0
  9 25  1  0  0  0  0
 11 15  2  0  0  0  0
 12 15  2  0  0  0  0
M  END
$$$$
