
  -OEChem-12102412483D

 24 24  0     0  0  0  0  0  0999 V2000
    3.5249    0.3546   -5.6870 C   0  0  0  0  0  0  0  0  0  0  0  0
    3.6387    0.0262   -4.3663 C   0  0  0  0  0  0  0  0  0  0  0  0
    5.5162   -1.0135   -5.0293 C   0  0  0  0  0  0  0  0  0  0  0  0
    1.2511    0.4426   -3.7723 C   0  0  0  0  0  0  0  0  0  0  0  0
   -0.6310   -0.9039   -4.2353 C   0  0  0  0  0  0  0  0  0  0  0  0
    8.5927   -0.2078   -6.0305 C   0  0  0  0  0  0  0  0  0  0  0  0
    2.6736    0.4401   -3.2698 C   0  0  0  0  0  0  0  0  0  0  0  0
    4.7301   -0.7226   -3.9986 N   0  0  0  0  0  0  0  0  0  0  0  0
    6.6466   -1.7329   -4.8937 N   0  5  0  0  0  0  0  0  0  0  0  0
    0.6649    1.3987   -4.2529 O   0  0  0  0  0  0  0  0  0  0  0  0
    7.1316   -1.8796   -7.4504 O   0  0  0  0  0  0  0  0  0  0  0  0
    8.7379   -2.8292   -5.7394 O   0  0  0  0  0  0  0  0  0  0  0  0
    0.6749   -0.7829   -3.6517 O   0  0  0  0  0  0  0  0  0  0  0  0
    4.8473   -0.3403   -6.5948 S   0  0  0  0  0  0  0  0  0  0  0  0
    7.7277   -1.8116   -6.0895 S   0  0  0  0  0  0  0  0  0  0  0  0
    2.7532    0.9465   -6.1626 H   0  0  0  0  0  0  0  0  0  0  0  0
   -0.9316   -1.9393   -4.0687 H   0  0  0  0  0  0  0  0  0  0  0  0
   -0.5921   -0.6859   -5.3060 H   0  0  0  0  0  0  0  0  0  0  0  0
   -1.3360   -0.2171   -3.7579 H   0  0  0  0  0  0  0  0  0  0  0  0
    9.3500   -0.2086   -6.8179 H   0  0  0  0  0  0  0  0  0  0  0  0
    7.8641    0.5876   -6.2019 H   0  0  0  0  0  0  0  0  0  0  0  0
    9.0537   -0.1092   -5.0464 H   0  0  0  0  0  0  0  0  0  0  0  0
    2.7781   -0.2711   -2.4482 H   0  0  0  0  0  0  0  0  0  0  0  0
    2.9049    1.4452   -2.9034 H   0  0  0  0  0  0  0  0  0  0  0  0
  1  2  2  0  0  0  0
  1 14  1  0  0  0  0
  1 16  1  0  0  0  0
  2  7  1  0  0  0  0
  2  8  1  0  0  0  0
  3  8  2  0  0  0  0
  3  9  1  0  0  0  0
  3 14  1  0  0  0  0
  4  7  1  0  0  0  0
  4 10  2  0  0  0  0
  4 13  1  0  0  0  0
  5 13  1  0  0  0  0
  5 17  1  0  0  0  0
  5 18  1  0  0  0  0
  5 19  1  0  0  0  0
  6 15  1  0  0  0  0
  6 20  1  0  0  0  0
  6 21  1  0  0  0  0
  6 22  1  0  0  0  0
  7 23  1  0  0  0  0
  7 24  1  0  0  0  0
  9 15  1  0  0  0  0
 11 15  2  0  0  0  0
 12 15  2  0  0  0  0
M  CHG  1   9  -1
M  END
$$$$
