
  -OEChem-12122420523D

 24 24  0     0  0  0  0  0  0999 V2000
    4.3910    1.7775   -5.5799 C   0  0  0  0  0  0  0  0  0  0  0  0
    3.7711    1.1291   -4.5513 C   0  0  0  0  0  0  0  0  0  0  0  0
    5.6914   -0.0348   -4.4480 C   0  0  0  0  0  0  0  0  0  0  0  0
    2.3943    1.0740   -2.5098 C   0  0  0  0  0  0  0  0  0  0  0  0
    3.7572    1.2940   -0.5844 C   0  0  0  0  0  0  0  0  0  0  0  0
    5.0796   -2.7584   -2.8523 C   0  0  0  0  0  0  0  0  0  0  0  0
    2.3971    1.4234   -3.9902 C   0  0  0  0  0  0  0  0  0  0  0  0
    4.4755    0.1173   -3.9413 N   0  0  0  0  0  0  0  0  0  0  0  0
    6.6793   -0.8771   -4.1160 N   0  5  0  0  0  0  0  0  0  0  0  0
    1.7057    0.2068   -2.0015 O   0  0  0  0  0  0  0  0  0  0  0  0
    6.2921   -0.8180   -1.5292 O   0  0  0  0  0  0  0  0  0  0  0  0
    7.7071   -2.6007   -2.6182 O   0  0  0  0  0  0  0  0  0  0  0  0
    3.2756    1.8401   -1.8333 O   0  0  0  0  0  0  0  0  0  0  0  0
    5.9963    1.1024   -5.8174 S   0  0  0  0  0  0  0  0  0  0  0  0
    6.5444   -1.6920   -2.7041 S   0  0  0  0  0  0  0  0  0  0  0  0
    4.0213    2.5993   -6.1801 H   0  0  0  0  0  0  0  0  0  0  0  0
    4.3097    2.1049   -0.1068 H   0  0  0  0  0  0  0  0  0  0  0  0
    4.4302    0.4608   -0.8069 H   0  0  0  0  0  0  0  0  0  0  0  0
    2.9232    0.9725    0.0443 H   0  0  0  0  0  0  0  0  0  0  0  0
    5.0110   -3.3307   -1.9242 H   0  0  0  0  0  0  0  0  0  0  0  0
    4.2061   -2.1219   -2.9927 H   0  0  0  0  0  0  0  0  0  0  0  0
    5.2338   -3.4235   -3.7042 H   0  0  0  0  0  0  0  0  0  0  0  0
    2.1475    2.4804   -4.1288 H   0  0  0  0  0  0  0  0  0  0  0  0
    1.6234    0.8134   -4.4653 H   0  0  0  0  0  0  0  0  0  0  0  0
  1  2  2  0  0  0  0
  1 14  1  0  0  0  0
  1 16  1  0  0  0  0
  2  7  1  0  0  0  0
  2  8  1  0  0  0  0
  3  8  2  0  0  0  0
  3  9  1  0  0  0  0
  3 14  1  0  0  0  0
  4  7  1  0  0  0  0
  4 10  2  0  0  0  0
  4 13  1  0  0  0  0
  5 13  1  0  0  0  0
  5 17  1  0  0  0  0
  5 18  1  0  0  0  0
  5 19  1  0  0  0  0
  6 15  1  0  0  0  0
  6 20  1  0  0  0  0
  6 21  1  0  0  0  0
  6 22  1  0  0  0  0
  7 23  1  0  0  0  0
  7 24  1  0  0  0  0
  9 15  1  0  0  0  0
 11 15  2  0  0  0  0
 12 15  2  0  0  0  0
M  CHG  1   9  -1
M  END
$$$$
