10   
torsion grid (-165,)
C       -0.6034539647   -0.9787724116    0.3528899983
C        0.2301046089   -0.8052010913   -0.9271595781
N        3.1549376943   -0.5156669363    0.6812921373
N        1.3476916863    0.1363548174   -0.7343142817
N        2.2543216960   -0.2710554027    0.0217340284
O       -0.5935095351   -2.0064421106    0.9940570705
S       -1.6172759746    0.4116937570    0.8695280291
H        0.5598700662   -1.8014488603   -1.2394151264
H       -0.3802114875   -0.3745942497   -1.7227636896
H       -1.1817194977    1.2820177951   -0.0657271202
10   
torsion grid (-150,)
C       -0.5451799506   -0.8875932795    0.3933645903
C        0.2446820612   -0.7183584428   -0.9140623143
N        3.2073628995   -0.7859904650    0.6509826229
N        1.4443197544    0.1082803110   -0.6856910095
N        2.3216696082   -0.4242420404    0.0262829929
O       -0.3299422762   -1.8136126403    1.1453510596
S       -1.7662861586    0.3590605517    0.8173388564
H        0.4939830370   -1.7223418816   -1.2742497059
H       -0.3315387403   -0.1988524108   -1.6794973375
H       -1.5683149427    1.1605356046   -0.2496982872
10   
torsion grid (-135,)
C       -0.5065537049   -0.7986098507    0.4298809185
C        0.2673358797   -0.6310900652   -0.8887067450
N        3.2524452176   -1.0027965035    0.6003498554
N        1.5325050299    0.0829556430   -0.6464454860
N        2.3803339581   -0.5492174913    0.0180794381
O       -0.1562034287   -1.6145637003    1.2550500220
S       -1.9106154014    0.2710382431    0.7585267521
H        0.4347263559   -1.6364555641   -1.2924011141
H       -0.2725173622   -0.0378279825   -1.6253175776
H       -1.8507012521    0.9934525784   -0.3788945959
10   
torsion grid (-120,)
C       -0.4826238952   -0.7045187003    0.4743708555
C        0.2904537652   -0.5461871211   -0.8476967662
N        3.2949147302   -1.1999829358    0.5113202237
N        1.6082897113    0.0586574482   -0.6106353437
N        2.4315694322   -0.6628280514   -0.0095596867
O       -0.0472035885   -1.3973716983    1.3677217891
S       -2.0392288381    0.1658060121    0.6875122501
H        0.3766674832   -1.5492713039   -1.2846078442
H       -0.2137384429    0.1059963223   -1.5589182195
H       -2.0483450655    0.8065853351   -0.4993857905
10   
torsion grid (-105,)
C       -0.4569856228   -0.6140021594    0.5153054161
C        0.3137666380   -0.4561967709   -0.8090267888
N        3.2975453418   -1.3835125159    0.4342983880
N        1.6753952490    0.0360436257   -0.5848668722
N        2.4592177105   -0.7657785777   -0.0356212968
O        0.0390072853   -1.1721940959    1.4677797211
S       -2.1296836169    0.0365600372    0.6227272599
H        0.3164072035   -1.4450685629   -1.2880539751
H       -0.1570952189    0.2577375768   -1.4829942688
H       -2.1868196776    0.5832967499   -0.6094261158
10   
torsion grid (-90,)
C       -0.4268195689   -0.5228543855    0.5516991013
C        0.3336357542   -0.3710569610   -0.7780689912
N        3.2607139056   -1.5493690867    0.3813041541
N        1.7318478660    0.0061882669   -0.5812457286
N        2.4624963659   -0.8612124887   -0.0595465104
O        0.1088838357   -0.9385269653    1.5527734628
S       -2.1763599383   -0.0987344592    0.5716396609
H        0.2441461727   -1.3344153549   -1.3010230088
H       -0.1041661353    0.4039377235   -1.4064294399
H       -2.2636229656    0.3429290179   -0.7009812326
10   
torsion grid (-75,)
C       -0.3932784167   -0.4399081730    0.5782979163
C        0.3511308679   -0.2887771446   -0.7591675054
N        3.1879412395   -1.6938804972    0.3634233885
N        1.7775471354   -0.0292726959   -0.5973062290
N        2.4436017781   -0.9468326501   -0.0758483380
O        0.1666224530   -0.7177038583    1.6121488967
S       -2.1846668491   -0.2389186439    0.5396251184
H        0.1623818612   -1.2051321172   -1.3377650388
H       -0.0487160795    0.5531671008   -1.3257895130
H       -2.2918086979    0.0841439862   -0.7674972281
10   
torsion grid (-60,)
C       -0.3617006412   -0.3556015883    0.5949374096
C        0.3670248756   -0.2125682712   -0.7510258283
N        3.0889165164   -1.8270709207    0.3651054715
N        1.8123351995   -0.0752241266   -0.6270283833
N        2.4060246431   -1.0314506142   -0.0884140789
O        0.2097400473   -0.4840930787    1.6509859966
S       -2.1650372128   -0.3766086607    0.5268913184
H        0.0809193821   -1.0654600195   -1.3834090171
H        0.0177659261    0.6931125873   -1.2521312887
H       -2.2852334440   -0.1881500003   -0.8057901321
10   
torsion grid (-45,)
C       -0.3363973619   -0.2818231155    0.5979401066
C        0.3824117681   -0.1345706088   -0.7528148631
N        2.9680656992   -1.9451346773    0.3827335531
N        1.8364471421   -0.1237363308   -0.6587774933
N        2.3529043814   -1.1096634478   -0.0957065560
O        0.2354735004   -0.2729012765    1.6614819087
S       -2.1241556376   -0.5216862603    0.5314367889
H        0.0089840794   -0.9003409179   -1.4462719318
H        0.1009846896    0.8334846974   -1.1775561693
H       -2.2539629686   -0.4667427556   -0.8123438762
10   
torsion grid (-30,)
C       -0.3207925889   -0.1978003804    0.5952279843
C        0.3972633095   -0.0546132863   -0.7579203910
N        2.8202547112   -2.0718609503    0.3826922952
N        1.8495613161   -0.1718156330   -0.6807144474
N        2.2814123266   -1.1922557092   -0.1092257927
O        0.2318295968   -0.0324043661    1.6566204585
S       -2.0614126563   -0.6702250985    0.5509257152
H       -0.0402632777   -0.7332382883   -1.5006454345
H        0.1992594404    0.9608076933   -1.1160457504
H       -2.1863568858   -0.7597086743   -0.7907931694
10   
torsion grid (-15,)
C       -0.3193153810   -0.1003768997    0.5925874479
C        0.4109185114    0.0340387499   -0.7577941161
N        2.6427761484   -2.2200568707    0.3290011032
N        1.8517012763   -0.2068549314   -0.6737856553
N        2.1885948350   -1.2809126378   -0.1390619352
O        0.1803755190    0.2394823438    1.6390438440
S       -1.9686787084   -0.8281788202    0.5841565466
H       -0.0643763424   -0.5737460219   -1.5360306997
H        0.3049991038    1.0784655207   -1.0662975831
H       -2.0562396702   -1.0649751257   -0.7416974847
10   
torsion grid (0,)
C        0.0691624550   -0.1507175857    0.7306381791
C        0.3191668357   -0.2100151036   -0.7907346043
N        3.4900116538   -1.1986189571   -0.3367150204
N        1.6981672177    0.1519505232   -1.1453762113
N        2.5806264779   -0.5991908773   -0.6867561098
O        0.3316324866    0.8291864803    1.3872524170
S       -0.6168647060   -1.6095980649    1.5376924095
H        0.0365051431   -1.1774358312   -1.2189747695
H       -0.3112553865    0.5581172082   -1.2438774355
H       -0.7028888710   -2.3995588121    0.4473546386
10   
torsion grid (15,)
C       -0.0344304993   -0.0791036717    0.7175772641
C        0.3036208290   -0.1244808288   -0.7858449527
N        3.3390555699   -1.4999724572   -0.4236072721
N        1.7328702207    0.1634104747   -1.0113129047
N        2.5139275381   -0.7483124235   -0.6770104596
O       -0.0363314827    0.9535501896    1.3454031611
S       -0.4142506377   -1.6342030449    1.5482158877
H        0.0216898160   -1.0767939848   -1.2462839600
H       -0.2430090823    0.6877745306   -1.2659318924
H       -0.2888789654   -2.4477498041    0.4792986221
10   
torsion grid (30,)
C       -0.1198810181   -0.0415347880    0.6988259878
C        0.2970097141   -0.0605618819   -0.7828132470
N        3.1985209231   -1.7203358168   -0.4834918399
N        1.7569373520    0.1330288169   -0.9051802140
N        2.4484927781   -0.8743882778   -0.6647923876
O       -0.3501963501    0.9845298493    1.2943959228
S       -0.2291591624   -1.6242400549    1.5582515004
H       -0.0156173454   -0.9834174124   -1.2824316701
H       -0.1634719069    0.8019128961   -1.2637172232
H        0.0716283219   -2.4208743507    0.5114566641
10   
torsion grid (45,)
C       -0.2075705697   -0.0288068781    0.6806278976
C        0.3143228390   -0.0126651921   -0.7671520355
N        3.0966604883   -1.8928556748   -0.5959424526
N        1.7868188852    0.0896344072   -0.7980662411
N        2.4068585454   -0.9823638055   -0.6815144482
O       -0.6545192053    0.9550064578    1.2219086883
S       -0.1095451208   -1.5853112315    1.5881600425
H       -0.0386290811   -0.8903190837   -1.3203933293
H       -0.0647906505    0.8963770582   -1.2329992221
H        0.3646571759   -2.3545770775    0.5858745936
10   
torsion grid (60,)
C       -0.3982294574    0.0446112216    0.6735018444
C        0.4317965871   -0.2562914761   -0.5772369221
N        3.3454676696   -1.2502890310   -1.8708738099
N        1.7926553937   -0.6604154508   -0.1604175950
N        2.5528465080   -0.9585753749   -1.0987604255
O       -0.9902800831    1.0914380706    0.8116263728
S       -0.5899513285   -1.2819958667    1.8661707153
H       -0.0462541264   -1.0865819006   -1.1136875507
H        0.4408466939    0.6455858931   -1.1960097816
H        0.3553654495   -2.0933671052    1.3461906456
10   
torsion grid (75,)
C       -0.4492207538    0.0119058683    0.6521775167
C        0.4482479206   -0.2064620809   -0.5682653872
N        3.3057951592   -1.3405253563   -1.8712928724
N        1.7562261299   -0.7566974221   -0.1560727614
N        2.5174252213   -1.0435893272   -1.0971553085
O       -1.1728165925    0.9807193806    0.7294913039
S       -0.5199994440   -1.2884875689    1.8822785033
H       -0.0683576642   -0.9219884000   -1.2225157939
H        0.5494540825    0.7561068166   -1.0777825810
H        0.5275092473   -1.9968629303    1.4096408739
10   
torsion grid (90,)
C       -0.4922634679   -0.0304223470    0.6282490495
C        0.4665316744   -0.1769126631   -0.5563986906
N        3.2760148324   -1.3905025610   -1.8916978137
N        1.7204535321   -0.8496432967   -0.1682820627
N        2.4882066748   -1.1069977255   -1.1121493264
O       -1.3120979786    0.8630083697    0.6368557692
S       -0.4684908659   -1.2674517233    1.9197187739
H       -0.0673525943   -0.7636348542   -1.3162691697
H        0.6476729883    0.8292722892   -0.9466809983
H        0.6355885111   -1.9125965080    1.4871579621
10   
torsion grid (105,)
C       -0.5283520826   -0.0744745327    0.6028820522
C        0.4799820735   -0.1630515478   -0.5469534721
N        3.2603317210   -1.4063136207   -1.9173173121
N        1.6724893766   -0.9540929272   -0.1985145933
N        2.4611654595   -1.1572491724   -1.1375597351
O       -1.4194108054    0.7468268473    0.5453196530
S       -0.4262755630   -1.2233481966    1.9674692897
H       -0.0591501629   -0.6101924149   -1.3921672263
H        0.7422180320    0.8668007630   -0.8112602828
H        0.7112652577   -1.8307862180    1.5686051201
10   
torsion grid (120,)
C       -0.5562291821   -0.1114905337    0.5791186837
C        0.4810329213   -0.1702672906   -0.5471088388
N        3.2810741610   -1.3691733091   -1.9181830554
N        1.5896626639   -1.0955419807   -0.2620258158
N        2.4389065597   -1.1952602434   -1.1636201832
O       -1.4954418430    0.6488129508    0.4686321445
S       -0.3853869145   -1.1537775627    2.0194315004
H       -0.0652346350   -0.4653958879   -1.4510251532
H        0.8405429390    0.8558644106   -0.6867864355
H        0.7653366360   -1.7496515734    1.6420706466
10   
torsion grid (135,)
C       -0.8991037576   -1.0315835167    0.1705334013
C        0.2471624424   -0.9809588711   -0.8617496433
N        3.1318618662    0.1198035308    0.4392667916
N        1.1113002068    0.2074190997   -0.8256747165
N        2.1479578789    0.0933035317   -0.1423755800
O       -1.5436057929   -2.0510323069    0.2889445178
S       -1.2660921882    0.4140846632    1.1586156479
H        0.8122180243   -1.9096410124   -0.7355819303
H       -0.2263040800   -1.0019687366   -1.8464197912
H       -0.3446393079    1.2174589253    0.5845627702
10   
torsion grid (150,)
C       -0.8153654629   -1.0478668545    0.2241970011
C        0.2361578927   -0.9583830973   -0.9005910773
N        3.0738849574    0.0311926255    0.5756538396
N        1.1589736879    0.1838865603   -0.8397441439
N        2.1354910228    0.0361699016   -0.0768406466
O       -1.3438344360   -2.1080798943    0.4783723416
S       -1.2806013484    0.4477257264    1.0930983444
H        0.7580244187   -1.9201488047   -0.9157406239
H       -0.3156033068   -0.8555334794   -1.8385792760
H       -0.4363721335    1.2679226232    0.4302957087
10   
torsion grid (165,)
C       -0.7417056070   -1.0532998223    0.2706227965
C        0.2291288951   -0.9242331328   -0.9179996247
N        3.0728663019   -0.0914476096    0.6406769188
N        1.2053732454    0.1711506325   -0.8216634054
N        2.1532413094   -0.0337678827   -0.0353045872
O       -1.1314775231   -2.1372592257    0.6452064138
S       -1.3556565653    0.4577892011    1.0163127793
H        0.6957250234   -1.9044201301   -1.0571481295
H       -0.3727895447   -0.7063808032   -1.8043051924
H       -0.5839502431    1.2987540798    0.2937234982
10   
torsion grid (180,)
C       -0.6685894787   -1.0321863241    0.3124993037
C        0.2254216819   -0.8798268973   -0.9301249594
N        3.0891559958   -0.2641232578    0.6928114158
N        1.2690619244    0.1489545627   -0.7946140644
N        2.1877304791   -0.1338554462    0.0026450332
O       -0.8801523050   -2.1096836072    0.8231033244
S       -1.4618724864    0.4540856556    0.9343816765
H        0.6226126736   -1.8718154543   -1.1680217822
H       -0.3981666945   -0.5528072232   -1.7657347209
H       -0.8144464982    1.3181432989    0.1231762409
