
  -OEChem-12102412483D

 41 43  0     1  0  0  0  0  0999 V2000
   -3.9304   -2.2764    1.1191 C   0  0  0  0  0  0  0  0  0  0  0  0
   -3.0131   -1.9922    2.1382 C   0  0  0  0  0  0  0  0  0  0  0  0
   -3.5989   -3.2162    0.1381 C   0  0  0  0  0  0  0  0  0  0  0  0
   -1.7674   -2.6252    2.1616 C   0  0  0  0  0  0  0  0  0  0  0  0
   -2.3525   -3.8497    0.1665 C   0  0  0  0  0  0  0  0  0  0  0  0
   -1.4176   -3.5513    1.1660 C   0  0  0  0  0  0  0  0  0  0  0  0
    1.0451   -3.0711    1.2783 C   0  0  0  0  0  0  0  0  0  0  0  0
    1.4971    0.0479    1.0700 C   0  0  0  0  0  0  0  0  0  0  0  0
   -0.5227   -1.2369   -1.1582 C   0  0  0  0  0  0  0  0  0  0  0  0
    2.2078   -1.1347    0.4017 C   0  0  0  0  0  0  0  0  0  0  0  0
    0.5758   -2.3020   -1.0659 C   0  0  0  0  0  0  0  0  0  0  0  0
   -0.8741    1.0233    1.0361 C   0  0  0  0  0  0  0  0  0  0  0  0
    0.4322    0.7979    0.2284 C   0  0  2  0  0  0  0  0  0  0  0  0
   -0.0027    0.1999   -1.1266 C   0  0  2  0  0  0  0  0  0  0  0  0
   -0.0257   -4.1589    1.1530 C   0  0  0  0  0  0  0  0  0  0  0  0
   -1.9673    1.4043    0.1118 N   0  0  0  0  0  0  0  0  0  0  0  0
    1.3194   -2.2823    0.1884 N   0  0  0  0  0  0  0  0  0  0  0  0
    1.6110   -2.8886    2.3603 O   0  0  0  0  0  0  0  0  0  0  0  0
   -2.4576    0.7228   -2.3178 O   0  0  0  0  0  0  0  0  0  0  0  0
   -0.8421    2.6372   -1.8715 O   0  0  0  0  0  0  0  0  0  0  0  0
   -1.4058    1.3389   -1.4985 S   0  0  0  0  0  0  0  0  0  0  0  0
   -4.8963   -1.7787    1.0953 H   0  0  0  0  0  0  0  0  0  0  0  0
   -3.2690   -1.2769    2.9163 H   0  0  0  0  0  0  0  0  0  0  0  0
   -4.3044   -3.4466   -0.6556 H   0  0  0  0  0  0  0  0  0  0  0  0
   -1.0520   -2.3927    2.9467 H   0  0  0  0  0  0  0  0  0  0  0  0
   -2.0986   -4.5671   -0.6111 H   0  0  0  0  0  0  0  0  0  0  0  0
    1.0509   -0.3307    1.9940 H   0  0  0  0  0  0  0  0  0  0  0  0
    2.2641    0.7659    1.3783 H   0  0  0  0  0  0  0  0  0  0  0  0
   -1.0663   -1.3888   -2.0962 H   0  0  0  0  0  0  0  0  0  0  0  0
   -1.2444   -1.3953   -0.3551 H   0  0  0  0  0  0  0  0  0  0  0  0
    2.6310   -0.8515   -0.5673 H   0  0  0  0  0  0  0  0  0  0  0  0
    3.0265   -1.4598    1.0453 H   0  0  0  0  0  0  0  0  0  0  0  0
    0.1246   -3.2829   -1.2075 H   0  0  0  0  0  0  0  0  0  0  0  0
    1.2918   -2.1674   -1.8860 H   0  0  0  0  0  0  0  0  0  0  0  0
   -1.1497    0.1022    1.5563 H   0  0  0  0  0  0  0  0  0  0  0  0
   -0.7222    1.8101    1.7801 H   0  0  0  0  0  0  0  0  0  0  0  0
    0.8371    1.7839   -0.0160 H   0  0  0  0  0  0  0  0  0  0  0  0
    0.7406    0.3818   -1.9075 H   0  0  0  0  0  0  0  0  0  0  0  0
    0.1206   -4.8020    2.0239 H   0  0  0  0  0  0  0  0  0  0  0  0
    0.1133   -4.7744    0.2601 H   0  0  0  0  0  0  0  0  0  0  0  0
   -2.7804    0.7948    0.1824 H   0  0  0  0  0  0  0  0  0  0  0  0
  1  2  1  0  0  0  0
  1  3  2  0  0  0  0
  1 22  1  0  0  0  0
  2  4  2  0  0  0  0
  2 23  1  0  0  0  0
  3  5  1  0  0  0  0
  3 24  1  0  0  0  0
  4  6  1  0  0  0  0
  4 25  1  0  0  0  0
  5  6  2  0  0  0  0
  5 26  1  0  0  0  0
  6 15  1  0  0  0  0
  7 15  1  0  0  0  0
  7 17  1  0  0  0  0
  7 18  2  0  0  0  0
  8 10  1  0  0  0  0
  8 13  1  0  0  0  0
  8 27  1  0  0  0  0
  8 28  1  0  0  0  0
  9 11  1  0  0  0  0
  9 14  1  0  0  0  0
  9 29  1  0  0  0  0
  9 30  1  0  0  0  0
 10 17  1  0  0  0  0
 10 31  1  0  0  0  0
 10 32  1  0  0  0  0
 11 17  1  0  0  0  0
 11 33  1  0  0  0  0
 11 34  1  0  0  0  0
 12 13  1  0  0  0  0
 12 16  1  0  0  0  0
 12 35  1  0  0  0  0
 12 36  1  0  0  0  0
 13 14  1  0  0  0  0
 13 37  1  0  0  0  0
 14 21  1  0  0  0  0
 14 38  1  0  0  0  0
 15 39  1  0  0  0  0
 15 40  1  0  0  0  0
 16 21  1  0  0  0  0
 16 41  1  0  0  0  0
 19 21  2  0  0  0  0
 20 21  2  0  0  0  0
M  END
$$$$
