
  -OEChem-12122420523D

 50 53  0     1  0  0  0  0  0999 V2000
    3.6381    8.9806  -10.7992 C   0  0  0  0  0  0  0  0  0  0  0  0
    2.9567    9.5449   -9.6882 C   0  0  0  0  0  0  0  0  0  0  0  0
    3.7374    7.6105  -10.9281 C   0  0  0  0  0  0  0  0  0  0  0  0
    3.2257    5.3344  -10.0253 C   0  0  0  0  0  0  0  0  0  0  0  0
    0.6855   -0.1131   -5.4774 C   0  0  0  0  0  0  0  0  0  0  0  0
   -0.2542    1.6299   -4.1236 C   0  0  0  0  0  0  0  0  0  0  0  0
    2.3881    8.7340   -8.7275 C   0  0  0  0  0  0  0  0  0  0  0  0
    1.1948    0.8390   -6.3632 C   0  0  0  0  0  0  0  0  0  0  0  0
    0.2503    2.5965   -4.9997 C   0  0  0  0  0  0  0  0  0  0  0  0
    2.6408    4.5755   -9.0385 C   0  0  0  0  0  0  0  0  0  0  0  0
    3.1612    6.7509   -9.9543 C   0  0  0  0  0  0  0  0  0  0  0  0
   -0.0342    0.2587   -4.3302 C   0  0  0  0  0  0  0  0  0  0  0  0
    2.4747    7.3185   -8.8340 C   0  0  0  0  0  0  0  0  0  0  0  0
    0.9867    2.1989   -6.1221 C   0  0  0  0  0  0  0  0  0  0  0  0
    1.9817    5.2373   -7.9638 C   0  0  0  0  0  0  0  0  0  0  0  0
   -2.1777   -0.7591   -3.4111 C   0  0  0  0  0  0  0  0  0  0  0  0
    1.6180   -0.9079   -0.2661 C   0  0  0  0  0  0  0  0  0  0  0  0
    0.6289   -2.0841   -0.1912 C   0  0  0  0  0  0  0  0  0  0  0  0
    1.3872   -0.3591   -1.6836 C   0  0  0  0  0  0  0  0  0  0  0  0
   -0.6350   -1.5569   -0.9030 C   0  0  0  0  0  0  0  0  0  0  0  0
   -0.1436   -0.4710   -1.9075 C   0  0  0  0  0  0  0  0  0  0  0  0
    1.3152    4.4566   -6.8528 C   0  0  0  0  0  0  0  0  0  0  0  0
   -0.5733   -0.7824   -3.3620 C   0  0  2  0  0  0  0  0  0  0  0  0
    1.9000    6.5527   -7.8618 N   0  0  0  0  0  0  0  0  0  0  0  0
   -2.6648    0.2975   -2.9193 O   0  5  0  0  0  0  0  0  0  0  0  0
   -2.7342   -1.7590   -3.9060 O   0  0  0  0  0  0  0  0  0  0  0  0
   -0.1083   -2.0931   -3.7268 O   0  0  0  0  0  0  0  0  0  0  0  0
    1.5376    3.0750   -7.0507 O   0  0  0  0  0  0  0  0  0  0  0  0
    4.0803    9.6336  -11.5474 H   0  0  0  0  0  0  0  0  0  0  0  0
    2.8845   10.6261   -9.5977 H   0  0  0  0  0  0  0  0  0  0  0  0
    4.2576    7.1716  -11.7773 H   0  0  0  0  0  0  0  0  0  0  0  0
    3.7377    4.8617  -10.8614 H   0  0  0  0  0  0  0  0  0  0  0  0
    0.8193   -1.1685   -5.6921 H   0  0  0  0  0  0  0  0  0  0  0  0
   -0.8735    1.9340   -3.2872 H   0  0  0  0  0  0  0  0  0  0  0  0
    1.8626    9.1458   -7.8707 H   0  0  0  0  0  0  0  0  0  0  0  0
    1.7472    0.5406   -7.2513 H   0  0  0  0  0  0  0  0  0  0  0  0
    0.0480    3.6439   -4.7999 H   0  0  0  0  0  0  0  0  0  0  0  0
    2.6645    3.4925   -9.0503 H   0  0  0  0  0  0  0  0  0  0  0  0
    1.3450   -0.1460    0.4769 H   0  0  0  0  0  0  0  0  0  0  0  0
    2.6594   -1.1966   -0.0750 H   0  0  0  0  0  0  0  0  0  0  0  0
    1.0406   -2.9378   -0.7458 H   0  0  0  0  0  0  0  0  0  0  0  0
    0.4393   -2.4233    0.8343 H   0  0  0  0  0  0  0  0  0  0  0  0
    1.7534    0.6625   -1.8235 H   0  0  0  0  0  0  0  0  0  0  0  0
    1.9445   -0.9846   -2.3977 H   0  0  0  0  0  0  0  0  0  0  0  0
   -1.1807   -2.3492   -1.4190 H   0  0  0  0  0  0  0  0  0  0  0  0
   -1.3224   -1.1036   -0.1816 H   0  0  0  0  0  0  0  0  0  0  0  0
   -0.6121    0.4780   -1.6477 H   0  0  0  0  0  0  0  0  0  0  0  0
    1.7246    4.7929   -5.8902 H   0  0  0  0  0  0  0  0  0  0  0  0
    0.2408    4.6887   -6.8511 H   0  0  0  0  0  0  0  0  0  0  0  0
    0.8545   -2.0880   -3.5935 H   0  0  0  0  0  0  0  0  0  0  0  0
  1  2  1  0  0  0  0
  1  3  2  0  0  0  0
  1 29  1  0  0  0  0
  2  7  2  0  0  0  0
  2 30  1  0  0  0  0
  3 11  1  0  0  0  0
  3 31  1  0  0  0  0
  4 10  1  0  0  0  0
  4 11  2  0  0  0  0
  4 32  1  0  0  0  0
  5  8  2  0  0  0  0
  5 12  1  0  0  0  0
  5 33  1  0  0  0  0
  6  9  1  0  0  0  0
  6 12  2  0  0  0  0
  6 34  1  0  0  0  0
  7 13  1  0  0  0  0
  7 35  1  0  0  0  0
  8 14  1  0  0  0  0
  8 36  1  0  0  0  0
  9 14  2  0  0  0  0
  9 37  1  0  0  0  0
 10 15  2  0  0  0  0
 10 38  1  0  0  0  0
 11 13  1  0  0  0  0
 12 23  1  0  0  0  0
 13 24  2  0  0  0  0
 14 28  1  0  0  0  0
 15 22  1  0  0  0  0
 15 24  1  0  0  0  0
 16 23  1  0  0  0  0
 16 25  1  0  0  0  0
 16 26  2  0  0  0  0
 17 18  1  0  0  0  0
 17 19  1  0  0  0  0
 17 39  1  0  0  0  0
 17 40  1  0  0  0  0
 18 20  1  0  0  0  0
 18 41  1  0  0  0  0
 18 42  1  0  0  0  0
 19 21  1  0  0  0  0
 19 43  1  0  0  0  0
 19 44  1  0  0  0  0
 20 21  1  0  0  0  0
 20 45  1  0  0  0  0
 20 46  1  0  0  0  0
 21 23  1  0  0  0  0
 21 47  1  0  0  0  0
 22 28  1  0  0  0  0
 22 48  1  0  0  0  0
 22 49  1  0  0  0  0
 23 27  1  0  0  0  0
 27 50  1  0  0  0  0
M  CHG  1  25  -1
M  END
$$$$
