50
-1 1 C23H22NO4
C                     6.746827960010    -0.540078610467   -12.291250677594
C                     6.886241326027     0.866485946266   -12.156797284281
C                     6.801802217179     1.464462348654   -10.915759798263
C                     6.575200671997     0.681732518085    -9.750984902924
C                     6.439557513686    -0.736173354042    -9.886784263764
C                     6.527294010401    -1.324200679817   -11.177189617825
C                     6.217636159924    -1.485642386047    -8.701103159071
C                     6.144661050916    -0.837547075567    -7.491040759449
C                     6.280555589570     0.578699593167    -7.463718853219
N                     6.488655040968     1.312317190619    -8.542702777149
C                     6.215205580203     1.352295470531    -6.155965397992
O                     5.957744843726     0.557892583373    -5.014890307295
C                     4.652821174216     0.117488061899    -4.802499958983
C                     4.449474136345    -0.635476201457    -3.642428639405
C                     3.182378662698    -1.145695680889    -3.354688187138
C                     2.093098183231    -0.920313931511    -4.209352552647
C                     2.316603237381    -0.163899813749    -5.368388854518
C                     3.581924242255     0.353702137572    -5.672171652600
C                     0.712472623340    -1.467350428533    -3.867957653509
C                    -0.270149300008    -0.301874796731    -3.618508167867
C                    -1.703191434272    -0.746240389548    -3.287083480679
C                    -2.369529070735     0.508254057062    -2.677429338484
C                    -1.201878943939     1.381381177321    -2.119553318357
C                     0.091617704633     0.590468700712    -2.419332149992
C                     0.153004346029    -2.365933089334    -5.054791274416
O                    -0.011562008751    -3.579359516110    -4.725066188010
O                    -0.083243914492    -1.793381646337    -6.143240691657
O                     0.786993247310    -2.288965613444    -2.704916792512
H                     6.809730080269    -0.995511383717   -13.276407957752
H                     7.056191291619     1.474745240835   -13.042047293509
H                     6.899867750329     2.539402014584   -10.792564369643
H                     6.413965217877    -2.402048079269   -11.273438268648
H                     6.096127436037    -2.565058716551    -8.760393925331
H                     5.963270612703    -1.375577166967    -6.568370883370
H                     7.194356275678     1.809403925752    -5.981647185653
H                     5.487712902042     2.167176997147    -6.256300894996
H                     5.293251262839    -0.813543655501    -2.979789951645
H                     3.015740478594    -1.735890405392    -2.460052230518
H                     1.494248823657    -0.026912868121    -6.063079758303
H                     3.713796833020     0.908069860962    -6.595785411487
H                    -0.295835567106     0.303736574453    -4.531603820593
H                    -2.228110398262    -1.129163798528    -4.166148503711
H                    -1.651398955626    -1.553516226744    -2.549114199727
H                    -2.919427326361     1.061843127937    -3.447648996450
H                    -3.096454571470     0.247924910223    -1.899203504492
H                    -1.180241797980     2.352511795286    -2.628513128481
H                    -1.315569741302     1.590744420317    -1.049385730178
H                     0.352151362589    -0.057661397878    -1.575082145451
H                     0.950967907884     1.239225704959    -2.616786582660
H                     0.502365478897    -3.158848321766    -3.096179515739
