50
-1 1 C23H22NO4
C                     6.329710008693     5.501254382818    -1.240543387964
C                     7.629754674904     5.263480647276    -1.759791334416
C                     7.807295190157     4.439935209113    -2.853064307768
C                     6.692506913898     3.816417846397    -3.477072858062
C                     5.382478726930     4.060495304917    -2.955632948477
C                     5.229110015932     4.910996432222    -1.827707033030
C                     4.291781767072     3.429527968467    -3.609967358814
C                     4.533704479491     2.624259972486    -4.695910142984
C                     5.878604486832     2.423278192701    -5.131441852533
N                     6.917981883133     2.999305763753    -4.549617695483
C                     6.172639676648     1.484008281528    -6.285898623073
O                     6.122202389088     0.098647421702    -5.902068580069
C                     4.856919834231    -0.315227308325    -5.471430965953
C                     4.654126569727    -0.578975691377    -4.118200550418
C                     3.371858516512    -0.899897613252    -3.658253207631
C                     2.277951678822    -0.942334577487    -4.532033581282
C                     2.510629834707    -0.721163940976    -5.902025266914
C                     3.790846670051    -0.418752267506    -6.371278990009
C                     0.867184809441    -1.139624118536    -3.991596463838
C                     0.081750957411     0.184272787103    -4.146771076736
C                    -1.361024518501     0.125099111885    -3.622357863281
C                    -1.788773481227     1.604092851955    -3.483536064468
C                    -0.465219000868     2.417034383167    -3.327803069070
C                     0.672871482735     1.372693087667    -3.368828077380
C                     0.091831195887    -2.286277726596    -4.771363140156
O                    -0.222595382650    -3.265203818096    -4.030779766118
O                    -0.145710008604    -2.091823723420    -5.986130322064
O                     0.916843539738    -1.508049003296    -2.616006416698
H                     6.205807239480     6.148910830761    -0.376053196506
H                     8.489494865883     5.732611601258    -1.287203530306
H                     8.793300476795     4.239865593253    -3.263050479606
H                     4.230489356262     5.086585114375    -1.433151933243
H                     3.278027925078     3.576809358215    -3.244388383801
H                     3.721389467638     2.122108392309    -5.209890119720
H                     5.470341755208     1.668173248775    -7.109839430698
H                     7.192480681139     1.658667553871    -6.632088280498
H                     5.493522172418    -0.491576793846    -3.432965916386
H                     3.192915898614    -1.090408034392    -2.605591526554
H                     1.672969885641    -0.817480453484    -6.585897962852
H                     3.963008352962    -0.248151244608    -7.432079951055
H                     0.056479194822     0.422163010424    -5.216380192453
H                    -2.013425728069    -0.451923629829    -4.282746785881
H                    -1.351617742693    -0.368322864686    -2.645075718996
H                    -2.329229940097     1.932549257166    -4.378891146459
H                    -2.465715151645     1.755836883081    -2.634940065081
H                    -0.359321899006     3.127640915992    -4.156439747636
H                    -0.447799010978     3.007166728260    -2.403863411106
H                     0.925179588961     1.033057819173    -2.358014328092
H                     1.589829636965     1.761243804148    -3.823665266971
H                     0.481344078248    -2.401803869278    -2.666181047150
