26
0 1 C7H14N2O3
C                    -1.533344171393    -0.993171647847     1.314703377664
C                     0.363234614134     0.735563927108    -0.707786896726
C                    -1.722240543831    -1.103680497350     2.816734223172
C                    -1.875156046298     1.800138868893    -1.082598357741
C                     0.608137229262    -1.471128875528    -1.972671965413
C                     3.239034967841    -0.249654388350    -0.437983588653
C                    -1.161759162042     0.540260229377    -0.588515613463
N                    -1.487641696925     0.279264922515     0.811909413396
N                     1.077409367723    -0.255220157833    -1.317251080178
O                    -1.449663421114    -1.992929652220     0.596940077614
O                     0.887150184048     1.737928944177    -0.219288961727
O                     2.422912600042     0.027281524717    -1.590064745108
H                    -2.594484774249    -1.731918327163     3.013912261291
H                    -0.850604787829    -1.608475449988     3.242887626648
H                    -1.855079258721    -0.138920511530     3.313586866183
H                    -1.535957370170     2.677662255833    -0.525914780248
H                    -2.956092602385     1.685432728633    -0.962210886278
H                    -1.655343352594     1.970782860981    -2.140799571694
H                     0.369410535524    -1.293829770919    -3.028120251348
H                    -0.251309014360    -1.876409010931    -1.438902830081
H                     1.414304932336    -2.205566496569    -1.916478166445
H                     4.264090294062    -0.068429873651    -0.767997171891
H                     3.128188085227    -1.295437485369    -0.126248072028
H                     2.981440397155     0.426035571586     0.381152295191
H                    -1.512862092282    -0.323129781493    -1.148508596437
H                    -1.354178023749     1.050874437966     1.454537825863
