
  -OEChem-12122420523D

 26 25  0     1  0  0  0  0  0999 V2000
   -2.8518   -0.4821    1.6559 C   0  0  0  0  0  0  0  0  0  0  0  0
   -0.2389    0.7378   -0.4109 C   0  0  0  0  0  0  0  0  0  0  0  0
   -3.2498   -0.2602    3.1040 C   0  0  0  0  0  0  0  0  0  0  0  0
   -2.4901    1.6339   -1.1255 C   0  0  0  0  0  0  0  0  0  0  0  0
    0.1575   -1.6695    0.2837 C   0  0  0  0  0  0  0  0  0  0  0  0
    2.5359    0.0055   -1.4614 C   0  0  0  0  0  0  0  0  0  0  0  0
   -1.7657    0.5393   -0.3417 C   0  0  2  0  0  0  0  0  0  0  0  0
   -2.1562    0.5404    1.0684 N   0  0  0  0  0  0  0  0  0  0  0  0
    0.5291   -0.4036   -0.3382 N   0  0  0  0  0  0  0  0  0  0  0  0
   -3.1321   -1.5226    1.0580 O   0  0  0  0  0  0  0  0  0  0  0  0
    0.2482    1.8552   -0.5600 O   0  0  0  0  0  0  0  0  0  0  0  0
    1.9114   -0.1797   -0.1816 O   0  0  0  0  0  0  0  0  0  0  0  0
   -4.3400   -0.3032    3.1761 H   0  0  0  0  0  0  0  0  0  0  0  0
   -2.8489   -1.0791    3.7068 H   0  0  0  0  0  0  0  0  0  0  0  0
   -2.9020    0.6913    3.5154 H   0  0  0  0  0  0  0  0  0  0  0  0
   -2.2284    2.6245   -0.7460 H   0  0  0  0  0  0  0  0  0  0  0  0
   -3.5703    1.4838   -1.0448 H   0  0  0  0  0  0  0  0  0  0  0  0
   -2.2061    1.5976   -2.1813 H   0  0  0  0  0  0  0  0  0  0  0  0
    0.7027   -2.4754   -0.2138 H   0  0  0  0  0  0  0  0  0  0  0  0
   -0.9117   -1.8510    0.1903 H   0  0  0  0  0  0  0  0  0  0  0  0
    0.4240   -1.6626    1.3470 H   0  0  0  0  0  0  0  0  0  0  0  0
    3.6031    0.0884   -1.2442 H   0  0  0  0  0  0  0  0  0  0  0  0
    2.1784    0.9236   -1.9347 H   0  0  0  0  0  0  0  0  0  0  0  0
    2.3531   -0.8594   -2.1101 H   0  0  0  0  0  0  0  0  0  0  0  0
   -2.0562   -0.4361   -0.7305 H   0  0  0  0  0  0  0  0  0  0  0  0
   -1.9756    1.3847    1.5971 H   0  0  0  0  0  0  0  0  0  0  0  0
  1  3  1  0  0  0  0
  1  8  1  0  0  0  0
  1 10  2  0  0  0  0
  2  7  1  0  0  0  0
  2  9  1  0  0  0  0
  2 11  2  0  0  0  0
  3 13  1  0  0  0  0
  3 14  1  0  0  0  0
  3 15  1  0  0  0  0
  4  7  1  0  0  0  0
  4 16  1  0  0  0  0
  4 17  1  0  0  0  0
  4 18  1  0  0  0  0
  5  9  1  0  0  0  0
  5 19  1  0  0  0  0
  5 20  1  0  0  0  0
  5 21  1  0  0  0  0
  6 12  1  0  0  0  0
  6 22  1  0  0  0  0
  6 23  1  0  0  0  0
  6 24  1  0  0  0  0
  7  8  1  0  0  0  0
  7 25  1  0  0  0  0
  8 26  1  0  0  0  0
  9 12  1  0  0  0  0
M  END
$$$$
