
  -OEChem-12102412483D

 26 25  0     1  0  0  0  0  0999 V2000
   -1.5333   -0.9932    1.3147 C   0  0  0  0  0  0  0  0  0  0  0  0
    0.3632    0.7356   -0.7078 C   0  0  0  0  0  0  0  0  0  0  0  0
   -1.7222   -1.1037    2.8167 C   0  0  0  0  0  0  0  0  0  0  0  0
   -1.8752    1.8001   -1.0826 C   0  0  0  0  0  0  0  0  0  0  0  0
    0.6081   -1.4711   -1.9727 C   0  0  0  0  0  0  0  0  0  0  0  0
    3.2390   -0.2497   -0.4380 C   0  0  0  0  0  0  0  0  0  0  0  0
   -1.1618    0.5403   -0.5885 C   0  0  2  0  0  0  0  0  0  0  0  0
   -1.4876    0.2793    0.8119 N   0  0  0  0  0  0  0  0  0  0  0  0
    1.0774   -0.2552   -1.3173 N   0  0  0  0  0  0  0  0  0  0  0  0
   -1.4497   -1.9929    0.5969 O   0  0  0  0  0  0  0  0  0  0  0  0
    0.8872    1.7379   -0.2193 O   0  0  0  0  0  0  0  0  0  0  0  0
    2.4229    0.0273   -1.5901 O   0  0  0  0  0  0  0  0  0  0  0  0
   -2.5945   -1.7319    3.0139 H   0  0  0  0  0  0  0  0  0  0  0  0
   -0.8506   -1.6085    3.2429 H   0  0  0  0  0  0  0  0  0  0  0  0
   -1.8551   -0.1389    3.3136 H   0  0  0  0  0  0  0  0  0  0  0  0
   -1.5360    2.6777   -0.5259 H   0  0  0  0  0  0  0  0  0  0  0  0
   -2.9561    1.6854   -0.9622 H   0  0  0  0  0  0  0  0  0  0  0  0
   -1.6553    1.9708   -2.1408 H   0  0  0  0  0  0  0  0  0  0  0  0
    0.3694   -1.2938   -3.0281 H   0  0  0  0  0  0  0  0  0  0  0  0
   -0.2513   -1.8764   -1.4389 H   0  0  0  0  0  0  0  0  0  0  0  0
    1.4143   -2.2056   -1.9165 H   0  0  0  0  0  0  0  0  0  0  0  0
    4.2641   -0.0684   -0.7680 H   0  0  0  0  0  0  0  0  0  0  0  0
    3.1282   -1.2954   -0.1262 H   0  0  0  0  0  0  0  0  0  0  0  0
    2.9814    0.4260    0.3812 H   0  0  0  0  0  0  0  0  0  0  0  0
   -1.5129   -0.3231   -1.1485 H   0  0  0  0  0  0  0  0  0  0  0  0
   -1.3542    1.0509    1.4545 H   0  0  0  0  0  0  0  0  0  0  0  0
  1  3  1  0  0  0  0
  1  8  1  0  0  0  0
  1 10  2  0  0  0  0
  2  7  1  0  0  0  0
  2  9  1  0  0  0  0
  2 11  2  0  0  0  0
  3 13  1  0  0  0  0
  3 14  1  0  0  0  0
  3 15  1  0  0  0  0
  4  7  1  0  0  0  0
  4 16  1  0  0  0  0
  4 17  1  0  0  0  0
  4 18  1  0  0  0  0
  5  9  1  0  0  0  0
  5 19  1  0  0  0  0
  5 20  1  0  0  0  0
  5 21  1  0  0  0  0
  6 12  1  0  0  0  0
  6 22  1  0  0  0  0
  6 23  1  0  0  0  0
  6 24  1  0  0  0  0
  7  8  1  0  0  0  0
  7 25  1  0  0  0  0
  8 26  1  0  0  0  0
  9 12  1  0  0  0  0
M  END
$$$$
