16   
torsion grid (-165,)
C        1.2712114012    0.3297899384   -0.1003609736
C       -1.1177896292    0.3305125134    0.5820721080
C        1.2251744463   -1.0140517437   -0.0788645616
C       -1.0701274833   -1.0127767854    0.5798881441
C        0.0269303818    1.1739568176    0.0592862375
C       -0.3625449926    1.8627333360   -1.2600709557
N        0.0440165070   -1.7200274049    0.1341279172
F       -0.9209575347    1.0175865298   -2.1542695664
F       -1.2762254252    2.8491034759   -1.0328919010
F        0.7051584163    2.4484080256   -1.8604717076
H        2.2212393741    0.8240344713   -0.2686597474
H       -2.0114119060    0.8278211108    0.9431192538
H        2.1139125034   -1.6206780460   -0.2217269215
H       -1.8998560687   -1.6180276544    0.9312544283
H        0.1937441006    2.0143428196    0.7474021158
H        0.1145764458   -2.6966326253    0.3802506647
16   
torsion grid (-150,)
C        1.2692332988    0.3440398260   -0.0781311676
C       -1.1307537717    0.3023780963    0.5538631056
C        1.2475231322   -1.0006173005   -0.0540346351
C       -1.0598295582   -1.0397398711    0.5575661732
C        0.0098571651    1.1681947237    0.0576724824
C       -0.3703565754    1.8761292638   -1.2649990774
N        0.0764275632   -1.7278705856    0.1391083927
F       -1.1670436374    1.1289689696   -2.0612988114
F       -1.0645145809    3.0224757058   -1.0030414777
F        0.7157266214    2.2363177404   -1.9913832017
H        2.2139659362    0.8531987023   -0.2307812208
H       -2.0423039993    0.7831592015    0.8926049693
H        2.1499585873   -1.5906397663   -0.1794049048
H       -1.8867591404   -1.6583134167    0.8918250083
H        0.1362560347    2.0010906073    0.7622886151
H        0.1596634614   -2.7026771177    0.3882302843
16   
torsion grid (-135,)
C        1.2601508042    0.3646210916   -0.0500719152
C       -1.1483820163    0.2694340304    0.5294643950
C        1.2692103419   -0.9801625651   -0.0275600950
C       -1.0486102990   -1.0710495972    0.5327692451
C       -0.0183055499    1.1628389173    0.0614733400
C       -0.3816928076    1.8894860347   -1.2688560993
N        0.1112977804   -1.7337102996    0.1403216681
F       -1.3996516991    1.3013949622   -1.9381624256
F       -0.7860698906    3.1688679155   -1.0148118870
F        0.6658629182    1.9777622696   -2.1224444453
H        2.1970172869    0.8936636899   -0.1834475923
H       -2.0792555703    0.7275940653    0.8463616362
H        2.1873882159   -1.5489038685   -0.1354298817
H       -1.8699668385   -1.7076362050    0.8462080474
H        0.0881529925    1.9892065755    0.7758960903
H        0.2099048681   -2.7073122378    0.3883744535
16   
torsion grid (-120,)
C        1.2465161656    0.3926281959   -0.0174123619
C       -1.1700797710    0.2360578559    0.5063884635
C        1.2898619579   -0.9512379751   -0.0018002557
C       -1.0374249619   -1.1020070561    0.5023990272
C       -0.0541438660    1.1597773399    0.0705018779
C       -0.3925471258    1.8972065700   -1.2670334120
N        0.1469608167   -1.7336508906    0.1345442122
F       -1.5877549517    1.5281817289   -1.7858248510
F       -0.4551640759    3.2453216531   -1.0715689609
F        0.5343912041    1.6909008496   -2.2325890970
H        2.1730236022    0.9455905835   -0.1268016005
H       -2.1199014627    0.6676010565    0.8027427173
H        2.2242195633   -1.4962463723   -0.0914280442
H       -1.8507430020   -1.7602131122    0.7911414662
H        0.0471322221    1.9827880980    0.7892243202
H        0.2627042219   -2.7066037461    0.3776010329
16   
torsion grid (-105,)
C        1.2330409965    0.4253116387    0.0161362290
C       -1.1921082898    0.2074991954    0.4826294089
C        1.3087757655   -0.9167748757    0.0206460502
C       -1.0258633809   -1.1270303786    0.4678733597
C       -0.0897364140    1.1599595037    0.0809018227
C       -0.3999791852    1.8936266667   -1.2599949306
N        0.1812015357   -1.7269508517    0.1217121916
F       -1.7015256608    1.7834196084   -1.6233199050
F       -0.1225125527    3.2234274702   -1.1636033091
F        0.3276194277    1.4203345862   -2.2998408994
H        2.1479453936    1.0024547186   -0.0659345027
H       -2.1576510197    0.6132903926    0.7627588695
H        2.2576329213   -1.4388534725   -0.0513268112
H       -1.8292733792   -1.8075477045    0.7316009561
H        0.0058281046    1.9831509219    0.8009334799
H        0.3136562740   -2.6992226405    0.3589125246
16   
torsion grid (-90,)
C        1.2236772130    0.4563831665    0.0471407628
C       -1.2091705845    0.1851261232    0.4577390833
C        1.3262951136   -0.8836495754    0.0404573761
C       -1.0140762404   -1.1454230656    0.4316991754
C       -0.1170561676    1.1621238196    0.0901232617
C       -0.4047066101    1.8823184959   -1.2502514879
N        0.2125984156   -1.7171018427    0.1065111079
F       -1.7352406656    2.0390496533   -1.4708068934
F        0.1604925645    3.1191686893   -1.2739659500
F        0.0794053800    1.2082244906   -2.3205211802
H        2.1273289203    1.0543641733   -0.0053728570
H       -2.1883725873    0.5689769852    0.7199197611
H        2.2866550278   -1.3866167822   -0.0134322701
H       -1.8086886868   -1.8454260217    0.6699981043
H       -0.0415759517    1.9870455594    0.8118077917
H        0.3594853959   -2.6884690900    0.3390387488
16   
torsion grid (-75,)
C        1.2197628469    0.4849028935    0.0843956687
C       -1.2181594086    0.1705120436    0.4419381312
C        1.3412515317   -0.8534323227    0.0569610560
C       -1.0026213485   -1.1562017669    0.3974185523
C       -0.1336723779    1.1661456912    0.0991169913
C       -0.4080905389    1.8609686278   -1.2464273894
N        0.2380266455   -1.7035096513    0.0808993212
F       -1.7031992391    2.2613650832   -1.3488950495
F        0.3695053130    2.9660639518   -1.3968943375
F       -0.1670405667    1.0570872696   -2.3080085547
H        2.1141752703    1.0981557898    0.0693220376
H       -2.2053978232    0.5379739510    0.6975169038
H        2.3095384196   -1.3426456134    0.0205635242
H       -1.7888773158   -1.8724467457    0.6142890083
H       -0.1034143250    1.9974726219    0.8172834906
H        0.3952634534   -2.6763170447    0.3006051802
16   
torsion grid (-60,)
C        1.2163608677    0.5044017807    0.1088378294
C       -1.2242772257    0.1516621498    0.4174514747
C        1.3560662084   -0.8323740617    0.0763566532
C       -0.9892386427   -1.1713617020    0.3726411859
C       -0.1455547171    1.1648381457    0.1005890569
C       -0.4146258005    1.8527897197   -1.2451930835
N        0.2654416428   -1.6986994950    0.0766348939
F       -1.6226113353    2.4790604984   -1.2453056736
F        0.5220407051    2.8039882713   -1.5075890498
F       -0.4118918075    0.9917971935   -2.2866271175
H        2.1018705346    1.1300694078    0.1108175016
H       -2.2209080942    0.5051881171    0.6567803545
H        2.3317382920   -1.3075914318    0.0541585627
H       -1.7685132614   -1.9002396190    0.5719563073
H       -0.1723046841    1.9925048826    0.8232593986
H        0.4334578546   -2.6699390783    0.2953162401
16   
torsion grid (-45,)
C        1.2110464685    0.5201690708    0.1325159924
C       -1.2282385881    0.1292425018    0.3928004546
C        1.3705021972   -0.8147208505    0.0986852784
C       -0.9740417672   -1.1900239133    0.3515005781
C       -0.1579325945    1.1607977891    0.0985537929
C       -0.4244943697    1.8532257467   -1.2489295097
N        0.2938014921   -1.6976549760    0.0769895703
F       -1.4955067328    2.6896151937   -1.1618232007
F        0.6325608816    2.6245734764   -1.6252075750
F       -0.6638181077    0.9884814558   -2.2567377862
H        2.0875119608    1.1577240843    0.1508084159
H       -2.2338848484    0.4679639470    0.6169274668
H        2.3535944985   -1.2748782774    0.0931127237
H       -1.7456869784   -1.9307003990    0.5364565869
H       -0.2413136467    1.9788474906    0.8272293651
H        0.4729506715   -2.6665675612    0.2972023808
16   
torsion grid (-30,)
C        1.2014880659    0.5348686215    0.1560954699
C       -1.2326239738    0.1011619366    0.3654402033
C        1.3853545912   -0.7971640501    0.1259594693
C       -0.9560986441   -1.2137134169    0.3307787920
C       -0.1756441467    1.1535766647    0.0952885970
C       -0.4366015109    1.8638783429   -1.2547249652
N        0.3256702523   -1.6992825325    0.0834643941
F       -1.3115967878    2.8964610350   -1.0954444576
F        0.7015148569    2.4131831841   -1.7587874785
F       -0.9361012745    1.0491387260   -2.2070906992
H        2.0670605649    1.1862772959    0.1913106982
H       -2.2492856516    0.4209686854    0.5680559997
H        2.3765769568   -1.2392972996    0.1401762176
H       -1.7191391289   -1.9669960441    0.4996876974
H       -0.3010741822    1.9578808863    0.8322775528
H        0.5175505492   -2.6648472561    0.3075970435
16   
torsion grid (-15,)
C        1.1936923392   -0.0368625946   -0.4902933009
C       -0.7895168235    0.6303957239    0.8389579865
C        0.8369276076   -1.3179449197   -0.2892676936
C       -1.0711450119   -0.6751289365    0.9916449375
C        0.3083545469    1.1183651239   -0.0836420381
C       -0.2775089196    1.8780396341   -1.3127252909
N       -0.3513687789   -1.6739267352    0.3417662856
F       -0.1754922111    3.2265532577   -1.1393220826
F        0.3943677263    1.5959048939   -2.4581919012
F       -1.5800586844    1.6040685932   -1.5455706724
H        2.1334761770    0.1746439496   -0.9875753650
H       -1.3871211311    1.3619512742    1.3725111784
H        1.4647397815   -2.1441940494   -0.6075434343
H       -1.8753249923   -1.0182111236    1.6348470164
H        0.8803152691    1.8948291937    0.4405456932
H       -0.4472863581   -2.6223885063    0.6739432157
16   
torsion grid (0,)
C        1.2041873284   -0.0055310164   -0.4562057496
C       -0.8259246734    0.6055752575    0.8264464045
C        0.8746898957   -1.2964086163   -0.2742817185
C       -1.0803096875   -0.7079431049    0.9605055438
C        0.2797218018    1.1262272126   -0.0649392223
C       -0.2812137408    1.8834492145   -1.3135862506
N       -0.3215500683   -1.6845471298    0.3220214505
F        0.1171733206    3.1876420600   -1.3049964572
F        0.1467011852    1.3574755525   -2.4855470114
F       -1.6350017986    1.8942623521   -1.3594307667
H        2.1519998917    0.2323361581   -0.9266573534
H       -1.4545432014    1.3175219051    1.3500778237
H        1.5305905304   -2.1049245270   -0.5811578694
H       -1.8922829542   -1.0747765800    1.5803469606
H        0.8472144974    1.9032045590    0.4626075487
H       -0.4044017904   -2.6374685181    0.6448812017
16   
torsion grid (15,)
C        1.2124287281    0.0279401406   -0.4256030912
C       -0.8640753364    0.5823591945    0.8096109229
C        0.9109169747   -1.2716052846   -0.2603752027
C       -1.0890000971   -0.7384025874    0.9273351813
C        0.2509204493    1.1356511543   -0.0473525195
C       -0.2838624204    1.8799746850   -1.3087398285
N       -0.2904737197   -1.6922903189    0.3032860153
F        0.3729478506    3.0615703268   -1.4858456602
F       -0.1455757620    1.1726193578   -2.4517282567
F       -1.5996277614    2.1958510338   -1.1988118712
H        2.1653314262    0.2929055937   -0.8714158933
H       -1.5223874236    1.2747932037    1.3218333849
H        1.5933730477   -2.0620651835   -0.5562589140
H       -1.9079108152   -1.1292775611    1.5229341297
H        0.8131402523    1.9150396545    0.4830027180
H       -0.3590948562   -2.6489686303    0.6182134193
16   
torsion grid (30,)
C        1.2236752218    0.0608775249   -0.3978400924
C       -0.8936584654    0.5652156426    0.7950343486
C        0.9424250586   -1.2452926961   -0.2519270800
C       -1.0956513026   -0.7609546272    0.8925354422
C        0.2299882093    1.1456137750   -0.0317603781
C       -0.2899481069    1.8669649568   -1.2982831830
N       -0.2653382474   -1.6934836833    0.2770559440
F        0.5551660235    2.8721169783   -1.6623266456
F       -0.4366200034    1.0517660177   -2.3633093398
F       -1.4970641632    2.4551234854   -1.0790781835
H        2.1830292070    0.3499630458   -0.8138547933
H       -1.5758539609    1.2407523151    1.2980798025
H        1.6467787886   -2.0205759520   -0.5365642198
H       -1.9201446858   -1.1739913595    1.4650953120
H        0.7725869753    1.9358693436    0.5041620642
H       -0.3223200116   -2.6538699882    0.5830655362
16   
torsion grid (45,)
C        1.2398044228    0.0909537608   -0.3674987042
C       -0.9108881569    0.5530995647    0.7864053052
C        0.9689430830   -1.2201583194   -0.2471500721
C       -1.0996949412   -0.7763241303    0.8597934633
C        0.2193365358    1.1548687851   -0.0176905082
C       -0.2993677738    1.8513246689   -1.2875165306
N       -0.2474549602   -1.6892204923    0.2435247554
F        0.6579051973    2.6566216990   -1.8254671791
F       -0.6928674589    0.9888218466   -2.2479701793
F       -1.3626022712    2.6550405510   -1.0106968566
H        2.2064898901    0.3987943765   -0.7509925712
H       -1.6063732717    1.2152497317    1.2892393837
H        1.6895276306   -1.9839951523   -0.5220186678
H       -1.9280189311   -1.2083868859    1.4124682931
H        0.7212412514    1.9639146518    0.5306526133
H       -0.2989297092   -2.6545098770    0.5350019892
16   
torsion grid (60,)
C        1.2509348833    0.1132494608   -0.3452085329
C       -0.9291257838    0.5377044315    0.7699097353
C        0.9940158240   -1.2021339502   -0.2384230148
C       -1.1007418766   -0.7942365515    0.8333640058
C        0.2101363946    1.1593258038   -0.0090191519
C       -0.3053200610    1.8510677941   -1.2788986062
N       -0.2240906384   -1.6911029783    0.2274756609
F        0.7103845431    2.4427708655   -1.9642189434
F       -0.9180441496    0.9996321187   -2.1306641534
F       -1.1998094185    2.8307534647   -0.9770590660
H        2.2190252295    0.4362710043   -0.7112547597
H       -1.6418615367    1.1881887541    1.2643461672
H        1.7293302407   -1.9545260937   -0.5057753486
H       -1.9327873235   -1.2413840277    1.3681729509
H        0.6623658184    1.9795688198    0.5660365366
H       -0.2673616088   -2.6590541371    0.5113010543
16   
torsion grid (75,)
C        1.2601702163    0.1320636216   -0.3217319621
C       -0.9461048007    0.5184032541    0.7517836843
C        1.0194848089   -1.1875589753   -0.2255508049
C       -1.1001072394   -0.8156596120    0.8091918944
C        0.1995036691    1.1610192088   -0.0035918894
C       -0.3112805136    1.8594535049   -1.2763752945
N       -0.1991865052   -1.6967448504    0.2156114685
F        0.7123573665    2.2235515925   -2.0933970583
F       -1.1307249055    1.0721689913   -2.0110387914
F       -1.0066678296    2.9878420639   -0.9727583559
H        2.2300579922    0.4692514395   -0.6689928780
H       -1.6762098185    1.1568060920    1.2372299195
H        1.7708221472   -1.9277074453   -0.4822954573
H       -1.9344924507   -1.2768366253    1.3281863201
H        0.6023576901    1.9866326821    0.5996092863
H       -0.2329292902   -2.6665901636    0.4942044529
16   
torsion grid (90,)
C        1.2621028892    0.1466846572   -0.3036459246
C       -0.9711411105    0.4904123344    0.7235421176
C        1.0484589802   -1.1775032305   -0.2036547647
C       -1.0976786924   -0.8460644512    0.7874723330
C        0.1807209597    1.1575181599   -0.0016118059
C       -0.3155206356    1.8810174054   -1.2778166170
N       -0.1640884623   -1.7114434177    0.2228467866
F        0.6637888738    2.0021632625   -2.2103557098
F       -1.3366851538    1.2305658549   -1.8844899620
F       -0.7610088207    3.1336293795   -0.9903931598
H        2.2295627974    0.5002370446   -0.6411976226
H       -1.7303532143    1.1141833913    1.1833490438
H        1.8191739926   -1.9018257994   -0.4476950605
H       -1.9357331765   -1.3210357985    1.2877100787
H        0.5477599196    1.9779102154    0.6302267964
H       -0.1823086098   -2.6803542290    0.5057980051
16   
torsion grid (105,)
C        1.2626275616    0.1694337468   -0.2732412761
C       -0.9972432100    0.4599800867    0.7034349280
C        1.0790135032   -1.1597317142   -0.1807656420
C       -1.0954084511   -0.8793778162    0.7615353150
C        0.1528345554    1.1563192527    0.0062346680
C       -0.3244453067    1.8925594530   -1.2832711542
N       -0.1300488290   -1.7220624970    0.2174013533
F        0.5435470778    1.7489563650   -2.3150146485
F       -1.5238192067    1.4483710731   -1.7299215511
F       -0.4626773303    3.2283771983   -1.0594947878
H        2.2294299370    0.5450052895   -0.5888785997
H       -1.7823943105    1.0637286567    1.1460186171
H        1.8718734023   -1.8649733252   -0.4091047410
H       -1.9343920401   -1.3737700464    1.2408801034
H        0.5020871844    1.9756062172    0.6481478882
H       -0.1339340006   -2.6923271610    0.4961240618
16   
torsion grid (120,)
C        1.2588058983    0.1984723740   -0.2418665391
C       -1.0284084326    0.4281262135    0.6833579159
C        1.1086656561   -1.1351845548   -0.1590858832
C       -1.0934329216   -0.9140306059    0.7325328212
C        0.1175792946    1.1570488748    0.0176631075
C       -0.3343424068    1.8961542081   -1.2848225861
N       -0.0947599367   -1.7297417880    0.2087730888
F        0.3512326982    1.4980106340   -2.3827562727
F       -1.6492010427    1.7236455163   -1.5598515346
F       -0.1353179150    3.2401714517   -1.1700173894
H        2.2224229770    0.6001753029   -0.5356596805
H       -1.8394193117    1.0081860523    1.1099400848
H        1.9242936214   -1.8187408764   -0.3725777451
H       -1.9311203347   -1.4315421718    1.1891970711
H        0.4613085224    1.9763865491    0.6616872753
H       -0.0812558293   -2.7010424010    0.4835708003
16   
torsion grid (135,)
C        1.2546324308    0.2320526184   -0.2108621252
C       -1.0588426149    0.4006543203    0.6642291237
C        1.1360950596   -1.1050863057   -0.1403024561
C       -1.0916824908   -0.9434271867    0.7000459399
C        0.0830308620    1.1611777913    0.0302691316
C       -0.3445681229    1.8891073283   -1.2802035151
N       -0.0617530048   -1.7308945875    0.1940681656
F        0.1036249497    1.2785863459   -2.4011994192
F       -1.6881047809    2.0136276714   -1.3975611811
F        0.1677505490    3.1542771205   -1.3086350302
H        2.2149622677    0.6605497104   -0.4773835320
H       -1.8926848396    0.9574483531    1.0766256025
H        1.9729718621   -1.7673534884   -0.3381607222
H       -1.9269298818   -1.4850153086    1.1327028112
H        0.4201513540    1.9839445702    0.6737599429
H       -0.0316030624   -2.7035541740    0.4626917978
16   
torsion grid (150,)
C        1.2547393748    0.2653349986   -0.1811020245
C       -1.0824549103    0.3806248772    0.6467251246
C        1.1601036011   -1.0742104026   -0.1265462840
C       -1.0891435798   -0.9642687326    0.6660077735
C        0.0577784234    1.1674603402    0.0429556375
C       -0.3524709846    1.8757536138   -1.2705953899
N       -0.0336736117   -1.7261210003    0.1728185921
F       -0.1632372466    1.1133364732   -2.3705685371
F       -1.6483157421    2.2728958340   -1.2631693352
F        0.4008483185    2.9996279684   -1.4547959835
H        2.2121373211    0.7170876280   -0.4180322316
H       -1.9343846892    0.9176646224    1.0478070299
H        2.0138141050   -1.7189113160   -0.3101556038
H       -1.9219707214   -1.5273356542    1.0753801863
H        0.3731770639    1.9974842905    0.6893033484
H        0.0101038146   -2.7003287618    0.4340522315
16   
torsion grid (165,)
C        1.2619539558    0.2952888251   -0.1469125257
C       -1.0951882919    0.3683638106    0.6336699946
C        1.1818021663   -1.0460804157   -0.1150596402
C       -1.0851080111   -0.9764392137    0.6320824992
C        0.0451768115    1.1750059661    0.0548309740
C       -0.3575089520    1.8584807899   -1.2634189872
N       -0.0113307452   -1.7167591852    0.1441732027
F       -0.4228035850    1.0015683908   -2.3060283827
F       -1.5614212553    2.4781471346   -1.1657460819
F        0.5520214512    2.8164989283   -1.6024641625
H        2.2188171204    0.7640434629   -0.3490464124
H       -1.9583538995    0.8907312878    1.0301885503
H        2.0476857395   -1.6782602120   -0.2848373911
H       -1.9162427438   -1.5568444053    1.0201532568
H        0.3176767091    2.0165570985    0.7066454387
H        0.0398740668   -2.6942074839    0.3918542016
16   
torsion grid (180,)
C        1.2681167881    0.3155853976   -0.1211758649
C       -1.1065382880    0.3524120815    0.6107589594
C        1.2031605285   -1.0271391671   -0.0996288769
C       -1.0788055132   -0.9917585881    0.6036730057
C        0.0369532641    1.1770846345    0.0601748283
C       -0.3591277495    1.8551249958   -1.2589709112
N        0.0145119274   -1.7149147301    0.1328835264
F       -0.6727994587    0.9718525641   -2.2320688751
F       -1.4376517952    2.6673397071   -1.0904193284
F        0.6498893412    2.6348186335   -1.7338514320
H        2.2222066041    0.7973050809   -0.3034136067
H       -1.9837117539    0.8624927682    0.9927805975
H        2.0799991031   -1.6472678829   -0.2572873043
H       -1.9094916982   -1.5853887258    0.9722189594
H        0.2560983097    2.0216007385    0.7285617266
H        0.0742409271   -2.6930527289    0.3758491305
