23   
torsion grid (-165,)
C       -1.9016712446    2.1781595911    2.0655986635
C        0.8061108807    2.0285911564    0.5238908046
C        1.3532100956    2.3138340120    2.9810459928
C       -2.5773550129    4.5202642076    2.3769662956
C       -0.8319089252    1.0728617586    2.2714497887
C        0.6390429385    1.4409110706    1.9338065957
N       -1.1858105218   -0.1454826936    1.5344236179
N       -1.5794622606    3.4565690326    2.4171194727
O       -3.0087142186    1.9036128133    1.5972703651
H        0.3066781764    2.9989210170    0.4330363823
H        1.8673915668    2.1740252054    0.2950779942
H        0.3987687481    1.3670481278   -0.2474995025
H        1.1364584920    3.3835945656    2.8716970660
H        1.1036163677    2.0122362988    4.0045524707
H        2.4380520822    2.2191569969    2.8663326763
H       -3.0515121123    4.5428393545    1.3935959986
H       -2.0805954196    5.4760864864    2.5585428095
H       -3.3611811061    4.3705125030    3.1283429489
H       -0.8662292008    0.8208233450    3.3404850678
H        1.1411319235    0.4673314978    1.9491326543
H       -1.1658246281    0.0671496342    0.5370486634
H       -2.1702428525   -0.3411804598    1.7186327461
H       -0.7234306941    3.6188547091    2.9253495477
23   
torsion grid (-150,)
C       -1.9288196161    2.1523888502    2.1495815114
C        0.8618987118    2.0425046201    0.5420236116
C        1.3302617775    2.2773612538    3.0286837984
C       -2.5836650256    4.5142120879    2.3286974958
C       -0.8315583815    1.0585921266    2.2348298093
C        0.6428164792    1.4359453989    1.9375279460
N       -1.1981827662   -0.1018272018    1.4094112806
N       -1.5752439119    3.4608977760    2.2853955702
O       -3.1047346900    1.8246386273    1.9671942463
H        0.3587087019    3.0086129635    0.4305945739
H        1.9307173968    2.1990476742    0.3604348335
H        0.4961525932    1.3824516503   -0.2508720006
H        1.1124124671    3.3508946810    2.9655630456
H        1.0581594434    1.9389043812    4.0341851730
H        2.4175684444    2.1916939196    2.9320926862
H       -3.2676330174    4.4031382671    1.4848411772
H       -2.0841956747    5.4835497244    2.2636384439
H       -3.1733896244    4.4718884208    3.2515073901
H       -0.8640334549    0.7177041974    3.2787356898
H        1.1435012052    0.4614131747    1.9474419605
H       -1.1944015006    0.1825302760    0.4298188950
H       -2.1773622203   -0.3130224484    1.6055843154
H       -0.6283078143    3.6874893752    2.5454281020
23   
torsion grid (-135,)
C       -1.7043493015    2.1892885503    1.6578916283
C        1.4823808743    2.5810777524    2.4225504723
C        1.5498915874    0.0760586960    2.3784288553
C       -2.1366889698    3.9862608035    0.0428152688
C       -0.7034058396    1.2647720115    2.3840970165
C        0.7693738679    1.3147431140    1.9121974248
N       -1.2739935012   -0.0879053912    2.2745844993
N       -1.2270511247    3.1318230026    0.7978916666
O       -2.9093275842    2.0888332457    1.9031468109
H        1.6031120008    2.5305794427    3.5110875867
H        2.4830807850    2.6654606750    1.9854587434
H        0.9383117584    3.5045716637    2.2044307530
H        1.5324611863   -0.0102209045    3.4727639720
H        1.1356125040   -0.8392547593    1.9503683768
H        2.5994106537    0.1512772778    2.0743293529
H       -2.6291909934    3.4393504579   -0.7697784368
H       -1.5727181175    4.8240136381   -0.3741538194
H       -2.9092092820    4.3677124917    0.7122284023
H       -0.7189206697    1.6316038114    3.4273766651
H        0.7822242801    1.2964423946    0.8128546261
H       -2.2841040206    0.0001826618    2.3857818225
H       -0.9408224991   -0.6635052273    3.0440748260
H       -0.2718902947    3.0573169986    0.4810807023
23   
torsion grid (-120,)
C       -1.6669113801    2.2612003199    1.7266256088
C        1.4717851254    2.6007425104    2.4386616130
C        1.5674015627    0.0922810066    2.4199028540
C       -2.1223106974    3.9706529996    0.0255241861
C       -0.6899275287    1.2585551917    2.3727335872
C        0.7861687118    1.3211582286    1.9274399467
N       -1.2827801144   -0.0671344705    2.1120294910
N       -1.2135360156    3.0809765024    0.7389575227
O       -2.8346680383    2.3032770110    2.1226569009
H        1.5496061198    2.5769010578    3.5320328058
H        2.4883587392    2.6810956384    2.0391449722
H        0.9293660207    3.5119225481    2.1712967614
H        1.5066589805    0.0006470686    3.5120961287
H        1.1916615782   -0.8302009132    1.9702540792
H        2.6268116538    0.1841502862    2.1581073026
H       -2.7686009237    3.4199631382   -0.6680093922
H       -1.5362657324    4.7053612110   -0.5315406531
H       -2.7593265492    4.4868219490    0.7456827150
H       -0.7165395546    1.5169481684    3.4462307762
H        0.8206657601    1.2922189443    0.8288247907
H       -2.2837445658    0.0053000787    2.2939644386
H       -0.9164544098   -0.7411679963    2.7805859807
H       -0.3090409351    2.8926540029    0.3323000614
23   
torsion grid (-105,)
C       -1.6305643091    2.3519530947    1.8231627504
C        1.4587244421    2.6304313848    2.4659995818
C        1.5710711217    0.1170557746    2.4586552215
C       -2.1524713860    3.9598403061    0.0422186740
C       -0.6854657455    1.2734223353    2.3833473345
C        0.7926406616    1.3428673510    1.9537627430
N       -1.3042237229   -0.0102290116    1.9915016447
N       -1.2428775750    3.0391828036    0.7131675304
O       -2.7152566397    2.5529937928    2.3746972837
H        1.4892375902    2.6346373530    3.5619973408
H        2.4912375368    2.7004865932    2.1076965155
H        0.9274228023    3.5311637445    2.1464431327
H        1.4863658671    0.0208679239    3.5486364852
H        1.2157247123   -0.8089332771    1.9980971545
H        2.6352263845    0.2151186406    2.2197177942
H       -2.9262085419    3.4274846242   -0.5238529337
H       -1.5798533173    4.5951547098   -0.6376612081
H       -2.6463705310    4.5831130719    0.7893780984
H       -0.7178580073    1.4318862680    3.4741433664
H        0.8414511648    1.3140539026    0.8558394284
H       -2.2956027612    0.0379252844    2.2263012634
H       -0.9160469054   -0.7607347850    2.5592384107
H       -0.4338387927    2.7088991532    0.2065671690
23   
torsion grid (-90,)
C       -1.6010698701    2.3768621846    1.9062784819
C        1.4209692425    2.6289429847    2.5306796854
C        1.5803059367    0.1136241800    2.4919792368
C       -2.2202740663    3.8826066375    0.0660472882
C       -0.6908067380    1.2360958006    2.3918017712
C        0.7931256514    1.3351131548    1.9906484606
N       -1.3089366571   -0.0065017298    1.8804402628
N       -1.3122744720    2.9300404914    0.6929649065
O       -2.5546399027    2.7484392183    2.5929591056
H        1.4019965842    2.6392242649    3.6268685875
H        2.4671060164    2.7102085732    2.2171936696
H        0.8924890962    3.5188488364    2.1778593544
H        1.4779097309    0.0005348155    3.5785813908
H        1.2500565371   -0.8134428764    2.0137162134
H        2.6468125609    0.2292818578    2.2722423277
H       -3.1151210747    3.3924207355   -0.3368196211
H       -1.6957524173    4.3974605340   -0.7425379590
H       -2.5392727227    4.6130334670    0.8110696935
H       -0.7421081060    1.3041753626    3.4897884880
H        0.8627793495    1.3315832513    0.8941797017
H       -2.2944074925   -0.0049566515    2.1430652681
H       -0.8958187025   -0.8089732389    2.3516474231
H       -0.6649450468    2.4289968865    0.0993929432
23   
torsion grid (-75,)
C       -1.5574063283    2.4578166829    1.9199064955
C        1.3831566744    2.6489389678    2.5980445529
C        1.5620087511    0.1338564010    2.4920050578
C       -2.2442258430    3.8663912830    0.0272378893
C       -0.7123055200    1.2535567979    2.3646189242
C        0.7824579041    1.3658022377    2.0060943149
N       -1.3299059097    0.0547432594    1.7580122721
N       -1.3807994163    2.8538413969    0.6228495492
O       -2.3169557504    3.0353728551    2.6979879098
H        1.3192698320    2.6407343842    3.6924121390
H        2.4400905709    2.7398445259    2.3266022916
H        0.8650758842    3.5424482694    2.2384537874
H        1.4366692691   -0.0091318243    3.5725375811
H        1.2484819830   -0.7833174319    1.9831817753
H        2.6325869434    0.2581497557    2.2981140309
H       -3.2477564474    3.4791654590   -0.1898376501
H       -1.7885035596    4.2255054071   -0.8988189644
H       -2.3453382233    4.6992704843    0.7244973559
H       -0.7940352354    1.2568070975    3.4620306165
H        0.8745433435    1.4064366107    0.9132166422
H       -2.3107663673    0.0150273338    2.0335409133
H       -0.8969507660   -0.7832295839    2.1412417103
H       -0.9665805287    2.1660937522    0.0052526759
23   
torsion grid (-60,)
C       -1.5095476177    2.5412268076    1.9122402635
C        1.3633100076    2.6898749649    2.6240215690
C        1.5528820104    0.1765152818    2.5066508549
C       -2.2853841614    3.8657070565   -0.0121327568
C       -0.7256772823    1.2880897661    2.3301102748
C        0.7796845442    1.4087491116    2.0114690920
N       -1.3295933207    0.1278926794    1.6421418788
N       -1.4920160991    2.7905705177    0.5680203103
O       -2.0458531782    3.2847473505    2.7337512562
H        1.2535046062    2.6888436427    3.7145179558
H        2.4307296463    2.7711518455    2.3938182263
H        0.8664864441    3.5856882622    2.2415593446
H        1.4124762264    0.0322088261    3.5849826145
H        1.2506464413   -0.7429869311    1.9943260810
H        2.6258262750    0.3020512759    2.3271765674
H       -3.3465933483    3.5989677524   -0.0983052343
H       -1.8949799434    4.1066073220   -1.0042480134
H       -2.2073212826    4.7454061833    0.6282548805
H       -0.8382711078    1.2404013049    3.4232600470
H        0.8866867514    1.4635662225    0.9209230041
H       -2.3033339442    0.0372869588    1.9297759290
H       -0.8664981214   -0.7288837201    1.9380661986
H       -1.2669193673    1.9902255311   -0.0131873896
23   
torsion grid (-45,)
C       -1.4540542441    2.5828656222    1.8508170668
C        1.3704925932    2.6932595612    2.6724237539
C        1.5432815556    0.1823695926    2.5603588707
C       -2.3428481728    3.8176226556   -0.0882285115
C       -0.7247163097    1.3001111162    2.2776814509
C        0.7979448105    1.4199869111    2.0339750916
N       -1.2856807883    0.1626276629    1.5191026433
N       -1.6133546396    2.7058109087    0.5018444769
O       -1.7975841955    3.4434141210    2.6624134895
H        1.2105522519    2.6955283542    3.7564570575
H        2.4485282008    2.7535755141    2.4896378278
H        0.9063352016    3.5974046303    2.2714442793
H        1.3540527413    0.0375691985    3.6310138343
H        1.2640032801   -0.7374695266    2.0354287514
H        2.6235110925    0.3045075796    2.4290789558
H       -3.4279050049    3.6521373036   -0.0785965516
H       -2.0137589266    3.9613211231   -1.1208120972
H       -2.1316679524    4.7207162216    0.4864184558
H       -0.8930178707    1.2198897361    3.3614478979
H        0.9470553453    1.4760336118    0.9480169340
H       -2.2558262299    0.0172472340    1.7959608950
H       -0.7908739879   -0.6937527987    1.7580400340
H       -1.4822323445    1.8498414654   -0.0277921611
23   
torsion grid (-30,)
C       -1.2706405110    2.6234845145    1.9363068439
C        1.5586086112    2.4260524312    2.8252443518
C        1.5169872291   -0.0614931310    2.4751289217
C       -2.2793698963    3.9456148780    0.1024998130
C       -0.6563808535    1.2572114272    2.2848611674
C        0.8791617019    1.2773643920    2.0655495685
N       -1.2743714270    0.2123022841    1.4444953835
N       -1.6838061055    2.7366486324    0.6444109832
O       -1.3485533138    3.5286037395    2.7697578755
H        1.3955435997    2.3323713542    3.9047315165
H        2.6385267552    2.4033837760    2.6434570846
H        1.1789259331    3.4037612141    2.5237278755
H        1.2994664937   -0.2925479559    3.5251216360
H        1.1817214971   -0.9047177316    1.8618875241
H        2.6052989969   -0.0097154312    2.3671738757
H       -3.3237701885    3.7790092329   -0.1868640943
H       -1.7224680426    4.2957567582   -0.7738017497
H       -2.2459762973    4.7136005679    0.8762772787
H       -0.8445176985    1.1192245162    3.3594885994
H        1.0451502042    1.4223007755    0.9897666285
H       -2.2433487885    0.0747480295    1.7290568443
H       -0.8056139457   -0.6782708600    1.5896177618
H       -1.6205276449    1.8901964839    0.0876157717
23   
torsion grid (-15,)
C       -1.1540058987    2.7528067984    1.9070912017
C        1.7006190657    2.4366456897    2.9488230985
C        1.5686063201   -0.0098010625    2.4088460388
C       -2.4102341387    3.9197012532    0.1374952946
C       -0.5659485636    1.3990650869    2.3467432310
C        0.9703959949    1.3767602957    2.1101495065
N       -1.2131518019    0.3072369222    1.5917367749
N       -1.8663466255    2.7173717609    0.7475334296
O       -1.0113807429    3.7733806402    2.5849951296
H        1.5901936427    2.2254753776    4.0192360593
H        2.7704918411    2.4211681710    2.7138017167
H        1.3153310394    3.4408712312    2.7714815327
H        1.3077535024   -0.3415437127    3.4218221831
H        1.2489505154   -0.7785105864    1.6976284041
H        2.6609182657    0.0345231171    2.3508776214
H       -3.3054722923    3.6666749586   -0.4372587432
H       -1.6855199847    4.4058457277   -0.5279617904
H       -2.6740921122    4.6244368157    0.9276000182
H       -0.7404018659    1.3367888112    3.4312974860
H        1.1356678861    1.5943594372    1.0462718490
H       -2.1746682426    0.1986718842    1.9125302526
H       -0.7489474075   -0.5757754113    1.7865888641
H       -1.8238919235    1.8447095395    0.2307136305
23   
torsion grid (0,)
C       -1.0666247315    2.8288714929    1.7763914252
C        1.7394140994    2.3960742589    3.0673859339
C        1.5705545537   -0.0033826307    2.3662591109
C       -2.5310381340    3.9204749016    0.1359154614
C       -0.5263341284    1.4801552573    2.2980930488
C        1.0200514362    1.4146018277    2.1284966478
N       -1.1770305632    0.3685520313    1.5728181650
N       -2.0013957897    2.7315841685    0.7876320003
O       -0.7386303142    3.9055705538    2.2802099315
H        1.5827582863    2.1078627395    4.1145648644
H        2.8176095983    2.3727510707    2.8742389548
H        1.3777056404    3.4161548353    2.9428619560
H        1.2513931666   -0.3955070707    3.3404641221
H        1.2770916301   -0.7164430688    1.5887843121
H        2.6649164161    0.0215270702    2.3697002421
H       -3.4706916577    3.6692618497   -0.3628824030
H       -1.8317964128    4.3329967788   -0.6024843209
H       -2.7154591024    4.6857229703    0.8915141983
H       -0.7441017328    1.4667822536    3.3770460363
H        1.2470489466    1.6927127573    1.0906952847
H       -2.1241364109    0.2443150450    1.9291575122
H       -0.6919893956   -0.5034639203    1.7637987943
H       -2.0273617363    1.8379894278    0.3062575688
23   
torsion grid (15,)
C       -1.5643758533    2.4474062879    2.2700193472
C        1.7791852098    0.5242686473    2.6591570091
C        0.7009630788    1.2600589214    0.4879126710
C       -3.8464621359    3.1981807807    1.7285248038
C       -0.6496314017    1.2580636761    2.6510841484
C        0.7453416096    1.4517446038    2.0110954522
N       -1.1618228618   -0.0916087611    2.3853348776
N       -2.8729585602    2.1541649271    2.0195834273
O       -1.1414925657    3.6044509913    2.2384659887
H        1.5034786481   -0.5255300504    2.5211546491
H        2.7691009556    0.6827136883    2.2170749611
H        1.8614350182    0.7132471856    3.7359977369
H        0.4760666081    0.2206644652    0.2210222424
H       -0.0447503654    1.9124535273    0.0202463360
H        1.6723032687    1.5034487613    0.0451048579
H       -4.1025378191    3.7695970028    2.6278894763
H       -4.7519293873    2.7398484705    1.3243022247
H       -3.4329997545    3.8927913665    0.9937800164
H       -0.5216135950    1.3405229712    3.7373449585
H        1.0232060118    2.4904260350    2.2109933001
H       -1.4838310641   -0.1999040318    1.4274740719
H       -1.9067451367   -0.3625070870    3.0212064611
H       -3.1759539252    1.1942587757    2.0919075975
23   
torsion grid (30,)
C       -1.5662854672    2.4240728216    2.1308570598
C        1.7732348098    0.5403955992    2.7251848122
C        0.8329065344    1.2473343216    0.4829195035
C       -3.8854156457    3.1968108240    1.8182197124
C       -0.6513042551    1.2478222502    2.5552191069
C        0.7770288471    1.4548254131    2.0031897225
N       -1.1432358922   -0.1009554163    2.2360956471
N       -2.9058678643    2.1591670436    2.1124476483
O       -1.1285243634    3.5486125966    1.8842100068
H        1.5100941529   -0.5120166089    2.5810784386
H        2.7879747195    0.6973102720    2.3430429536
H        1.7896100088    0.7415180533    3.8031892813
H        0.6200464287    0.2056427548    0.2165970141
H        0.1232197404    1.8991966971   -0.0371654902
H        1.8327449079    1.4823176434    0.1031610534
H       -3.9868732616    3.8992375448    2.6531503551
H       -4.8532645714    2.7292608772    1.6233962364
H       -3.5729168627    3.7626352605    0.9374118043
H       -0.5906624506    1.3129670674    3.6490357219
H        1.0346505732    2.4976833259    2.2087429905
H       -1.5128040913   -0.1568101047    1.2909772251
H       -1.8531539666   -0.4263659833    2.8861631767
H       -3.2192062246    1.2246111648    2.3293663783
23   
torsion grid (45,)
C       -1.5866288193    2.3694696738    2.0235497310
C        1.7533109708    0.5448352929    2.7856955625
C        0.9413398949    1.2313850164    0.4897559682
C       -3.9092368559    3.1944557557    1.9235747805
C       -0.6636557515    1.2089983924    2.4747482540
C        0.7871260408    1.4425644117    2.0027943833
N       -1.1243550531   -0.1378138902    2.0916927903
N       -2.9225447998    2.1683523476    2.2350897294
O       -1.1651970379    3.4261759912    1.5528407716
H        1.5129892212   -0.5114692531    2.6299475710
H        2.7859578717    0.7139307282    2.4612692841
H        1.7058989756    0.7489981642    3.8623889573
H        0.7588915958    0.1856178313    0.2177018214
H        0.2585635953    1.8733750176   -0.0744200143
H        1.9613437667    1.4765883699    0.1754211416
H       -3.8738797473    4.0168856757    2.6469165836
H       -4.9058496355    2.7473742815    1.9382153022
H       -3.7135004337    3.6086911428    0.9316991599
H       -0.6603318205    1.2418311821    3.5720326131
H        1.0181263411    2.4899394312    2.2197114560
H       -1.4744234778   -0.1494034844    1.1369741056
H       -1.8605409593   -0.4845043662    2.7008346814
H       -3.2296850905    1.2911771682    2.6290790990
23   
torsion grid (60,)
C       -1.6398335382    2.2350474440    1.8898710681
C        1.6572506401    0.4177377269    2.8300844331
C        1.0088867169    1.0643064853    0.4728701769
C       -3.9006348281    3.2155818427    2.0481245503
C       -0.7336610011    1.0697213965    2.3539054336
C        0.7417337218    1.2976926290    1.9678405500
N       -1.2004618301   -0.2554708469    1.9003856113
N       -2.9389398398    2.1564011471    2.3298634976
O       -1.2650556590    3.1451138290    1.1512793125
H        1.4194529313   -0.6412936529    2.6897748954
H        2.7077076677    0.5721828502    2.5600847015
H        1.5500646561    0.6512475908    3.8962483727
H        0.8884878358    0.0073621627    0.2094078912
H        0.3459606202    1.6703564736   -0.1496549712
H        2.0403476387    1.3410634936    0.2301934722
H       -3.7513538758    4.0906605505    2.6927461395
H       -4.9132759963    2.8304657123    2.1922725244
H       -3.7810037697    3.5340684678    1.0116473766
H       -0.7840803425    1.0529941860    3.4517823577
H        0.9576696289    2.3498509592    2.1822248409
H       -1.3107286191   -0.2478545656    0.8875648109
H       -2.1200445784   -0.4644757321    2.2832452156
H       -3.1459710007    1.5212354146    3.0893598545
23   
torsion grid (75,)
C       -1.6872115231    2.1810677946    1.8162824074
C        1.6215273640    0.4586929038    2.8835681986
C        1.0782340257    1.0903807427    0.4975503557
C       -3.8965776459    3.2392363771    2.1378540355
C       -0.7597673806    1.0465896982    2.2968277345
C        0.7256420787    1.3146162705    1.9765131609
N       -1.1918520082   -0.2688921141    1.7830609537
N       -2.9008691235    2.2238607943    2.4590667919
O       -1.4250971556    2.9362955261    0.8798612404
H        1.4132086307   -0.6056538201    2.7358578646
H        2.6794651049    0.6345879010    2.6600416399
H        1.4614876425    0.6919864159    3.9430512628
H        1.0046782178    0.0298810312    0.2311897149
H        0.4296555577    1.6746144777   -0.1586867457
H        2.1133949934    1.3965847144    0.3121567928
H       -3.6546480060    4.2101676804    2.5873563328
H       -4.8753747420    2.9106217322    2.4963141821
H       -3.9334961640    3.3669158913    1.0549866853
H       -0.8503564017    0.9910556957    3.3906792368
H        0.9047432902    2.3722658317    2.2036600122
H       -1.2065413796   -0.2408903751    0.7643145529
H       -2.1501411519   -0.4561119199    2.0734326186
H       -2.9890053852    1.7331365935    3.3391654478
23   
torsion grid (90,)
C       -1.2566359707    2.8695348121    2.2880914241
C        0.9485710674    1.3243997903    0.4758718814
C        1.7480919869    2.6782771298    2.4631140475
C       -2.8427998018    4.5432651133    3.1845370788
C       -0.5156075800    1.5558801284    2.5983257185
C        0.9051116487    1.4796099158    2.0036299692
N       -1.3303938904    0.3933404986    2.1987478312
N       -2.0500134828    3.3269637854    3.3105087808
O       -1.2498767056    3.4078021044    1.1793042145
H        0.5084442343    2.1897933482   -0.0233607641
H        1.9887819510    1.2219838294    0.1466793418
H        0.4197474382    0.4231485228    0.1485981157
H        1.3853311598    3.6096902928    2.0170541729
H        1.7291940657    2.7904662724    3.5543619839
H        2.7934184543    2.5497503134    2.1632166166
H       -2.2639290026    5.4394869995    3.4398532652
H       -3.7155870214    4.4813420371    3.8402060383
H       -3.1730934331    4.6334668413    2.1490379935
H       -0.3971351318    1.4836331786    3.6883440846
H        1.3367050952    0.5690802907    2.4385554707
H       -1.5445961118    0.4657578702    1.2045661960
H       -2.2272261464    0.4245245359    2.6824024770
H       -1.8936485762    2.9522466935    4.2366332353
23   
torsion grid (105,)
C       -1.3468574585    2.7735544240    2.2478333265
C        0.9646203234    1.3799643877    0.4887913782
C        1.6363923290    2.7231113547    2.5277751763
C       -2.7202985140    4.6032530973    3.1876626083
C       -0.5698376874    1.4855390492    2.5692610818
C        0.8719400662    1.4927517110    2.0174655241
N       -1.3146209310    0.2985238531    2.1178237973
N       -1.9507374443    3.3729453385    3.3219056483
O       -1.5103966388    3.1791742923    1.0945928738
H        0.4898849404    2.2316529700   -0.0030836587
H        2.0171488745    1.3426869554    0.1860541226
H        0.4918656658    0.4614783747    0.1267173433
H        1.2337124707    3.6462004319    2.0965922229
H        1.5865087324    2.8070315733    3.6205029682
H        2.6936077503    2.6625144120    2.2494001299
H       -2.0845763664    5.4944625767    3.2582739446
H       -3.4841929875    4.6449634546    3.9687472669
H       -3.2015941262    4.6026690327    2.2089529612
H       -0.4826784690    1.3970572717    3.6605498040
H        1.3371231850    0.5950470155    2.4440627199
H       -1.5376502202    0.4125391222    1.1291959830
H       -2.2101936412    0.2576106895    2.6034158773
H       -1.6710344857    3.0808648472    4.2485082969
23   
torsion grid (120,)
C       -1.4303020265    2.6482926602    2.2324340498
C        0.9600941529    1.4423849683    0.5141954091
C        1.5448357253    2.7309178490    2.6123490978
C       -2.5710511284    4.6425939136    3.1463913917
C       -0.6089431039    1.3915263987    2.5654855442
C        0.8438291955    1.4882137837    2.0442480033
N       -1.2712090690    0.1750831268    2.0741819486
N       -1.8395329114    3.3921832289    3.3058256555
O       -1.7616274237    2.9222678214    1.0761829056
H        0.4495724287    2.2886705076    0.0480255566
H        2.0161852918    1.4696636846    0.2232675165
H        0.5347679724    0.5189504220    0.1096232056
H        1.1060498170    3.6531512033    2.2147284516
H        1.4809370961    2.7691579885    3.7069419654
H        2.6063158509    2.7303842786    2.3440659499
H       -1.8967682305    5.4992064019    3.0236483886
H       -3.2072396327    4.8094046020    4.0197124209
H       -3.1932213660    4.5650795224    2.2540006856
H       -0.5434938149    1.2941817350    3.6572032469
H        1.3423408478    0.5959730123    2.4432171861
H       -1.5157028252    0.3218687770    1.0945535221
H       -2.1578872637    0.0569949705    2.5635920259
H       -1.4321684488    3.1859167732    4.2078931489
23   
torsion grid (135,)
C       -1.5509809883    2.5515083609    2.2097119429
C        0.8980663598    1.5662585415    0.5167727005
C        1.4456202348    2.7450798736    2.6866164326
C       -2.4817943786    4.6869558039    3.0387333550
C       -0.6750823230    1.3314128144    2.5448971466
C        0.7806490538    1.5180768484    2.0463460817
N       -1.2491008828    0.0912534970    2.0098827441
N       -1.7725000052    3.4290265375    3.2346705109
O       -2.0480071555    2.7015878658    1.0908933209
H        0.3646809183    2.4247850560    0.0989053970
H        1.9520270655    1.6413696757    0.2269932579
H        0.4959462738    0.6587933608    0.0572927287
H        0.9884213888    3.6788098523    2.3403460927
H        1.3786816761    2.7193360317    3.7816791828
H        2.5080379724    2.7842001267    2.4248333854
H       -1.8074969801    5.4926016314    2.7224243388
H       -2.9765190858    4.9784008846    3.9690458864
H       -3.2315192421    4.5410921930    2.2602989247
H       -0.6251719849    1.2205609894    3.6358268333
H        1.3061066368    0.6203773432    2.3944073728
H       -1.5357689763    0.2737093952    1.0473837371
H       -2.1124593555   -0.1160512668    2.5112196149
H       -1.2395838066    3.3057811365    4.0850597279
23   
torsion grid (150,)
C       -1.6720187636    2.4251500100    2.2060366374
C        0.8026754409    1.6931307330    0.5190117686
C        1.3916700297    2.7096442772    2.7572555615
C       -2.4588405077    4.6728051887    2.8842431147
C       -0.7239282218    1.2566273241    2.5419619996
C        0.7223061834    1.5270048074    2.0426758906
N       -1.2100515576   -0.0085633112    1.9818253589
N       -1.7185919244    3.4401141796    3.1195227321
O       -2.3423463741    2.4326292169    1.1710457733
H        0.2385983802    2.5674039931    0.1786125915
H        1.8458445424    1.8203291621    0.2096494672
H        0.4099626173    0.8143515992    0.0000168988
H        0.9445550788    3.6671292459    2.4686017989
H        1.3280347345    2.6149535105    3.8490895447
H        2.4543626478    2.7562454680    2.4975097586
H       -1.8288191910    5.4464415585    2.4276690266
H       -2.8602356106    5.0504354418    3.8287725681
H       -3.2820168112    4.4523456798    2.2040388462
H       -0.6728545012    1.1424640188    3.6321380903
H        1.2682551621    0.6146829969    2.3102720191
H       -1.5599072714    0.1899641942    1.0433594404
H       -2.0325312973   -0.3045271411    2.5068078129
H       -1.0742804067    3.4071373879    3.8977472982
23   
torsion grid (165,)
C       -1.6374411640    3.3292367238    2.7244482454
C        0.5638479431    2.4195674768    0.8405707310
C        1.5240077722    2.8726654371    3.1341638492
C       -1.8479765832    5.6729682012    3.4738914055
C       -0.9013419756    1.9814371749    2.9009745408
C        0.5422118508    2.0164796195    2.3213409512
N       -1.6415685454    0.8846218146    2.2686922140
N       -1.2251144276    4.3558119401    3.5240523021
O       -2.5109877778    3.4792819983    1.8674566274
H        0.2171456316    3.4494460677    0.7012079527
H        1.5826298335    2.3519100013    0.4439441977
H       -0.0700430724    1.7645518010    0.2362769542
H        1.3371843174    3.9437459069    3.0063675309
H        1.4799270728    2.6365169098    4.2054079385
H        2.5502666050    2.6817488070    2.8029257727
H       -2.0664444224    5.9229243002    2.4345653675
H       -1.1575076171    6.4128622753    3.8863873683
H       -2.7876652212    5.7038540985    4.0385471748
H       -0.8176118724    1.7617565740    3.9730173828
H        0.8702920448    0.9733094397    2.3912702800
H       -2.0316391049    1.2461896842    1.3972361351
H       -2.4598017450    0.6718689017    2.8385386319
H       -0.5890138890    4.1494803468    4.2814275255
23   
torsion grid (180,)
C       -1.8104200173    2.3736335013    2.0546749712
C        0.8004599203    2.0077740192    0.5129862665
C        1.3627453397    2.4572233686    2.9383163479
C       -2.4474377881    4.6899753140    2.5842252739
C       -0.8373238754    1.1964125443    2.3106949803
C        0.6458114200    1.5156539355    1.9579736685
N       -1.2428346236    0.0040874893    1.5589040015
N       -1.5450238673    3.5493554293    2.6982611733
O       -2.7450544249    2.2729999446    1.2574194732
H        0.2956076074    2.9688700625    0.3634417308
H        1.8589281202    2.1452913297    0.2662260200
H        0.3885422961    1.2895355016   -0.2020181944
H        1.1030824048    3.5080354942    2.7724185680
H        1.1474036704    2.2015185645    3.9838472928
H        2.4467788585    2.3777146199    2.8044949919
H       -2.6839294752    4.8590071939    1.5322745913
H       -1.9514834444    5.5754400279    2.9886593309
H       -3.3885384744    4.5243858951    3.1221797298
H       -0.8735351327    0.9479506441    3.3794175866
H        1.1318709466    0.5369431793    2.0331870540
H       -1.5437594337    0.3102842511    0.6333613451
H       -2.0962957596   -0.3659282411    1.9763624043
H       -0.8800972879    3.5401908745    3.4582915327
