24   
torsion grid (-165,)
C        7.3858540495   -2.4038401866   -1.4904183698
C        7.1792230436   -1.0745169226   -1.1070007144
C        6.3484310735   -3.3273862853   -1.3456200276
C        5.9458070107   -0.6836356884   -0.5837873413
C        5.1108757741   -2.9360288656   -0.8237349104
C        4.9017252973   -1.6094805329   -0.4235922600
C        2.8619786431   -0.2283571171   -1.0080009453
C        1.0930520423   -1.4667467174    1.4652606343
C        3.5713406573   -1.0583915013    0.0726748116
O        3.1139641366   -3.1571033454    1.7139330127
O        1.8577906154   -3.0758286104   -0.5093146660
S        2.4321839975   -2.3862655605    0.6610195169
H        8.3446719684   -2.7144230337   -1.8971921557
H        7.9761311830   -0.3431710932   -1.2139586738
H        6.4960547193   -4.3622838477   -1.6426867151
H        5.7989378922    0.3519361093   -0.2826644840
H        4.3221450471   -3.6738857126   -0.7356404359
H        3.5390431835    0.5509033751   -1.3664728747
H        1.9597479877    0.2612420729   -0.6299840302
H        2.5911935577   -0.8657790929   -1.8527133611
H        0.4665194488   -2.2330479137    1.9257910724
H        0.5219892011   -0.9085756754    0.7240964139
H        1.5111539089   -0.8144203543    2.2336723057
H        3.7467015658   -0.4553904340    0.9704873082
24   
torsion grid (-150,)
C        7.3824242509   -2.4001787724   -1.4668922993
C        7.2281301359   -1.1227905104   -0.9195300723
C        6.2880772378   -3.2687763002   -1.5075983937
C        5.9880780779   -0.7274255471   -0.4126826633
C        5.0446751282   -2.8710396016   -1.0080946097
C        4.8893163457   -1.5993241775   -0.4373140633
C        2.7898244573   -0.3641044864   -1.1196128648
C        1.1405269430   -1.4432893341    1.5404891492
C        3.5507755132   -1.0503626500    0.0235827983
O        3.2516544434   -3.0125295226    1.8567406379
O        1.9109249763   -3.1838164598   -0.3129248320
S        2.4948208836   -2.3697505801    0.7706227908
H        8.3462867156   -2.7148203452   -1.8583704825
H        8.0700247254   -0.4362597835   -0.8842621416
H        6.3981858760   -4.2622069860   -1.9343665055
H        5.8771625027    0.2661761000    0.0176424190
H        4.2031052207   -3.5533482141   -1.0649181243
H        3.4334913750    0.3992061602   -1.5653247375
H        1.8742371732    0.1257019612   -0.7746524911
H        2.5311725163   -1.0926313041   -1.8912731286
H        0.5510357858   -2.1945158856    2.0697294645
H        0.5342606459   -0.9605265739    0.7744632785
H        1.5515621030   -0.7225987630    2.2492373813
H        3.7157406296   -0.3539661284    0.8522239488
24   
torsion grid (-135,)
C        7.3826920887   -2.4052206247   -1.4430175116
C        7.2685237670   -1.1972051508   -0.7491125468
C        6.2445639906   -3.1891883652   -1.6585488443
C        6.0224904084   -0.7826618634   -0.2707476355
C        4.9974141210   -2.7704246196   -1.1895125123
C        4.8795427601   -1.5671598500   -0.4759962189
C        2.7167564088   -0.4708338782   -1.2120676431
C        1.1746787543   -1.4112153689    1.5656465672
C        3.5365648455   -1.0201196167   -0.0380039515
O        3.3862199959   -2.8114404520    1.9782348200
O        2.0208791847   -3.2667030421   -0.1364310292
S        2.5715757467   -2.3221370668    0.8549896617
H        8.3507292112   -2.7335749571   -1.8123715841
H        8.1461512806   -0.5795720849   -0.5771245980
H        6.3260618426   -4.1300753947   -2.1964538596
H        5.9413397284    0.1547955686    0.2755755520
H        4.1199646068   -3.3846599974   -1.3656779871
H        3.3153559282    0.2766402989   -1.7403463534
H        1.7900925991    0.0087128869   -0.8826569672
H        2.4678709307   -1.2719509503   -1.9114752836
H        0.6402804746   -2.1420476053    2.1757654014
H        0.5280588795   -1.0398944452    0.7709147484
H        1.5521817854   -0.6032215119    2.1944442615
H        3.6929444426   -0.2481848686    0.7218305564
24   
torsion grid (-120,)
C        7.2416602129   -2.3443129892   -1.7039254409
C        6.4565384904   -3.4546533145   -1.3804340566
C        6.7893949143   -1.0594393251   -1.3845682641
C        5.2259401039   -3.2775732892   -0.7420004369
C        5.5641277765   -0.8822749753   -0.7388379098
C        4.7691416405   -1.9939004340   -0.4168904529
C        3.6307768150   -1.2040340240    1.7191736769
C        0.7204053234   -0.9513721627    0.1960210240
C        3.4660057585   -1.8384437325    0.3339923716
O        2.1150423640   -1.5321174546   -1.9823326096
O        2.7233980432    0.5714957188   -0.6576551881
S        2.2948128692   -0.8397973967   -0.6963431012
H        8.1971799766   -2.4784170515   -2.2043427752
H        6.7980177406   -4.4564147314   -1.6274747329
H        7.3915473348   -0.1916316895   -1.6405637196
H        4.6132163420   -4.1437822645   -0.5027038297
H        5.2136136246    0.1187833502   -0.5083632371
H        4.3649308344   -1.7823732530    2.2871885368
H        2.6936565853   -1.1996843090    2.2835906610
H        3.9912926808   -0.1766058085    1.6353542557
H       -0.0130160237   -0.4766578544   -0.4587104336
H        0.7891242125   -0.4108020522    1.1397676637
H        0.4629266954   -2.0012058524    0.3463260213
H        2.9753157861   -2.8134039164    0.4087632752
24   
torsion grid (-105,)
C        7.2239950235   -2.3302749603   -1.7332593000
C        6.3657903139   -3.4159240622   -1.5344889782
C        6.8645433171   -1.0689847294   -1.2462029176
C        5.1605389918   -3.2403083178   -0.8498145996
C        5.6624730963   -0.8941867438   -0.5575708809
C        4.8018847344   -1.9825143184   -0.3477018767
C        3.6198598415   -1.0680394496    1.7308226983
C        0.7435846029   -0.9637603440    0.1879323545
C        3.5016148339   -1.8191585464    0.4022179511
O        2.1223911220   -1.8067750483   -1.9136568802
O        2.7333777116    0.4480841530   -0.8656717546
S        2.3095966728   -0.9572782460   -0.7261225805
H        8.1608190780   -2.4637503072   -2.2681141802
H        6.6313392172   -4.3980838184   -1.9163960337
H        7.5196588939   -0.2170816473   -1.4081070666
H        4.4891407699   -4.0843665066   -0.7122828131
H        5.3837017690    0.0937669685   -0.2057179424
H        4.3931888922   -1.5437603957    2.3405463587
H        2.6833095145   -1.0910457357    2.2952295433
H        3.8999911913   -0.0246162972    1.5719738015
H        0.0000719787   -0.5809349173   -0.5139603445
H        0.8179736470   -0.3067057720    1.0541848335
H        0.4957859437   -1.9875696013    0.4737792309
H        3.0464928727   -2.8023885636    0.5522262440
24   
torsion grid (-90,)
C        7.2005210029   -2.3309365694   -1.7576142578
C        6.2566420530   -3.3602498940   -1.6801865723
C        6.9559608288   -1.1162328670   -1.1094243196
C        5.0795222942   -3.1748224528   -0.9528605900
C        5.7787857233   -0.9321803922   -0.3802408088
C        4.8355430138   -1.9657491060   -0.2854714040
C        3.6271717741   -0.9190229882    1.7301971314
C        0.7481660340   -1.0624393894    0.1980441214
C        3.5420496297   -1.7835763109    0.4711826854
O        2.1559827199   -2.0145943375   -1.8340841802
O        2.6812645409    0.3400844607   -0.9745550564
S        2.3119000013   -1.0641042920   -0.7202708701
H        8.1170326007   -2.4721532709   -2.3246432553
H        6.4336559312   -4.3032484094   -2.1905334832
H        7.6789801977   -0.3076592224   -1.1771384758
H        4.3374843440   -3.9677973450   -0.9124482207
H        5.5911882957    0.0233635125    0.0984560342
H        4.4418552406   -1.2831659299    2.3624225605
H        2.7029787245   -0.9670948643    2.3124557221
H        3.8205267186    0.1269165499    1.4829707826
H       -0.0122595702   -0.7723847922   -0.5296610482
H        0.7944924508   -0.3337695562    1.0070478707
H        0.5460266790   -2.0690212561    0.5685097941
H        3.1206175187   -2.7660448209    0.7049633927
24   
torsion grid (-75,)
C        7.2172316889   -2.3355641024   -1.7545542535
C        6.1784081449   -3.2700471457   -1.8242033621
C        7.0715377461   -1.1993902505   -0.9538902736
C        5.0067694661   -3.0706270525   -1.0929422063
C        5.8969899737   -0.9992371198   -0.2233683043
C        4.8587170756   -1.9399690157   -0.2731412681
C        3.6206154907   -0.7564377670    1.6547835050
C        0.7469384699   -1.1025787932    0.2008639215
C        3.5633906375   -1.7290200561    0.4773460282
O        2.1234526092   -2.2159275333   -1.7640469254
O        2.6162462939    0.2215142737   -1.1551670221
S        2.2886297351   -1.1572667444   -0.7528387640
H        8.1301643978   -2.4893628228   -2.3241039179
H        6.2778130309   -4.1511060401   -2.4526190645
H        7.8692608554   -0.4630997257   -0.9020061732
H        4.1950994362   -3.7880107952   -1.1664911128
H        5.7951153013   -0.1020080675    0.3780144915
H        4.4464582886   -1.0335093930    2.3161169087
H        2.7001313913   -0.7884917293    2.2432814125
H        3.7745295030    0.2704192440    1.3154070834
H       -0.0362938783   -0.9095935901   -0.5347912043
H        0.7888676992   -0.2929885780    0.9289810662
H        0.5815347715   -2.0704701168    0.6775083454
H        3.1719041727   -2.6995372099    0.7998306158
24   
torsion grid (-60,)
C        7.2216817041   -2.3446603305   -1.7295123602
C        6.1094362033   -3.1641604421   -1.9485166565
C        7.1408416723   -1.3141733332   -0.7902525612
C        4.9302252208   -2.9603073838   -1.2308758659
C        5.9578024632   -1.1051964000   -0.0752010295
C        4.8446072056   -1.9357208658   -0.2714026193
C        3.5892565233   -0.6280440136    1.5668146412
C        0.7118171795   -1.1306527555    0.2729210404
C        3.5457361639   -1.6966179375    0.4761503629
O        1.9881472193   -2.4562458705   -1.6174357385
O        2.4876580890    0.0372478419   -1.3319592068
S        2.2034996689   -1.2845810450   -0.7489475652
H        8.1395897477   -2.5049772495   -2.2891776558
H        6.1567049259   -3.9625029746   -2.6844149392
H        7.9947875426   -0.6643889681   -0.6173755577
H        4.0699809405   -3.5930104429   -1.4194523984
H        5.9154919987   -0.2858782196    0.6340899374
H        4.3963274899   -0.8536701636    2.2692911074
H        2.6594885336   -0.6044868963    2.1397046468
H        3.7597273792    0.3647177551    1.1432987997
H       -0.1136383242   -1.1006874821   -0.4408809770
H        0.7476966221   -0.2071447153    0.8496530154
H        0.6164867093   -2.0084569560    0.9147490038
H        3.1929221708   -2.6471643244    0.8932873595
24   
torsion grid (-45,)
C        7.2679523191   -2.3294164391   -1.7136112412
C        6.1070335165   -3.0172443804   -2.0793652576
C        7.2207687782   -1.4328317499   -0.6447025017
C        4.9141131929   -2.8191133681   -1.3823182661
C        6.0243311619   -1.2259234075    0.0486682852
C        4.8580659284   -1.9278920541   -0.2947714765
C        3.5879958274   -0.5198277079    1.4567606618
C        0.7026323194   -1.1730070835    0.3447123324
C        3.5577389403   -1.6809081372    0.4634768439
O        1.8928974857   -2.7250232523   -1.4151046044
O        2.3695257327   -0.2119541053   -1.4962302278
S        2.1432220242   -1.4451368240   -0.7252447972
H        8.1952682340   -2.4865696192   -2.2583957402
H        6.1251566030   -3.7111146206   -2.9157030208
H        8.1112756607   -0.8825518726   -0.3520128665
H        4.0264608881   -3.3629428980   -1.6830371706
H        6.0187553433   -0.5062996683    0.8593185377
H        4.3675230513   -0.6921605480    2.2030403484
H        2.6464699222   -0.4339430192    2.0026645347
H        3.7877009302    0.4279812823    0.9507508557
H       -0.1535614903   -1.2591175192   -0.3271332242
H        0.7400623200   -0.1769532503    0.7837357915
H        0.6568364769   -1.9543060668    1.1056310503
H        3.2637153922   -2.6034851643    0.9794873214
24   
torsion grid (-30,)
C        7.2673280911   -2.3663909451   -1.6806569633
C        6.0604083845   -2.8657869886   -2.1763021405
C        7.2598102927   -1.6249595325   -0.4977198800
C        4.8602115568   -2.6342195068   -1.5003301024
C        6.0584285367   -1.3825704720    0.1742991726
C        4.8396070313   -1.8889631537   -0.3079258113
C        3.5887757393   -0.3471151779    1.3338160420
C        0.6804260434   -1.2024705117    0.4646645715
C        3.5519421585   -1.6125877186    0.4720751216
O        1.8300112990   -2.8805888531   -1.2015254223
O        2.2159782497   -0.3753251335   -1.5490731286
S        2.0734528824   -1.5330315289   -0.6511533465
H        8.1989527150   -2.5499594397   -2.2095468098
H        6.0463479078   -3.4417753744   -3.0978697938
H        8.1870150433   -1.2244995504   -0.0959043682
H        3.9450189066   -3.0511133359   -1.9020947550
H        6.0923682697   -0.7904407419    1.0816714461
H        4.3631251548   -0.4353307441    2.0982990225
H        2.6489971297   -0.1930675484    1.8673862493
H        3.7970288639    0.5338781143    0.7220644739
H       -0.2025667926   -1.4105342755   -0.1426530525
H        0.6853669181   -0.1604453820    0.7811328323
H        0.7161248672   -1.8885362717    1.3129141084
H        3.3165016022   -2.4836545883    1.0966798643
24   
torsion grid (-15,)
C        7.3079365894   -2.4030195227   -1.6189259174
C        6.0982292830   -2.6965969056   -2.2511641420
C        7.2871557527   -1.8375503967   -0.3414017680
C        4.8786523771   -2.4289744689   -1.6222030325
C        6.0693302964   -1.5608832262    0.2837253521
C        4.8448159925   -1.8402072579   -0.3482004675
C        3.5517609788   -0.1901124482    1.1257270418
C        0.6754286419   -1.3282443828    0.4898559415
C        3.5560103723   -1.5580869797    0.4285810359
O        1.8845548165   -3.0543209912   -1.0923365154
O        2.0930595119   -0.5632666428   -1.6304187416
S        2.0508419710   -1.6581621480   -0.6462572296
H        8.2531776466   -2.6155045409   -2.1114986918
H        6.0954178491   -3.1433040389   -3.2418953520
H        8.2171988140   -1.6108100483    0.1734512243
H        3.9637139966   -2.6898682691   -2.1384517245
H        6.0891461996   -1.1306807278    1.2800630253
H        4.4052567679   -0.1031738713    1.7993667472
H        2.6565812445   -0.0453322515    1.7348193727
H        3.6141120086    0.6121506788    0.3865434893
H       -0.2134860839   -1.6169637072   -0.0743695704
H        0.6369062291   -0.2694195595    0.7416470047
H        0.7720242214   -1.9567179825    1.3770396705
H        3.3918571249   -2.3620129721    1.1562430881
24   
torsion grid (0,)
C        7.3164655501   -2.4387808053   -1.5697682756
C        6.1217763936   -2.5491798347   -2.2833890603
C        7.2787472009   -2.0257460328   -0.2342624173
C        4.8965998032   -2.2477510601   -1.6790051207
C        6.0574398220   -1.7197456804    0.3678166698
C        4.8509220678   -1.8105438166   -0.3479509340
C        3.5645556741   -0.0519834852    0.9657699157
C        0.6991633458   -1.4330863053    0.5843937360
C        3.5710755448   -1.4891543348    0.4213289691
O        1.9596279703   -3.1577337595   -0.9697818409
O        1.9834025847   -0.6878516273   -1.6248984549
S        2.0465202865   -1.7362790445   -0.5912431730
H        8.2646375559   -2.6774410080   -2.0443751344
H        6.1345889962   -2.8777427370   -3.3192075075
H        8.1971533590   -1.9468356034    0.3416642187
H        3.9913600081   -2.3535710874   -2.2633935015
H        6.0485039187   -1.4168509792    1.4121398362
H        4.4664465131    0.1260957220    1.5547478662
H        2.7075552607    0.1387729664    1.6172577762
H        3.5496061427    0.6623117994    0.1391552387
H       -0.1969535083   -1.7848337365    0.0695060296
H        0.6195542914   -0.3682877010    0.7994539898
H        0.8629366651   -2.0212104920    1.4891054600
H        3.4530044830   -2.2128114892    1.2358978212
24   
torsion grid (15,)
C        7.2838336469   -2.4499251345   -1.5581453744
C        6.1159700654   -2.3976135436   -2.3218263074
C        7.2199744091   -2.1840429553   -0.1862587152
C        4.8893084557   -2.0783296261   -1.7297157654
C        5.9962164053   -1.8674777228    0.4051972770
C        4.8192007304   -1.7982310906   -0.3586494948
C        3.5119897077    0.0388398716    0.7995547981
C        0.6803037082   -1.5550026598    0.6171100906
C        3.5417739231   -1.4422468444    0.3918330388
O        2.0195201676   -3.2768786912   -0.8803169456
O        1.8679193953   -0.8463437157   -1.6543116747
S        2.0188974954   -1.8370114033   -0.5722844310
H        8.2331243969   -2.7009395401   -2.0240513163
H        6.1521902770   -2.6100452048   -3.3870137882
H        8.1182351983   -2.2309500065    0.4239205245
H        4.0022826226   -2.0409892522   -2.3508114494
H        5.9560893895   -1.6776967724    1.4761565624
H        4.4285594357    0.2814404019    1.3429773007
H        2.6662817719    0.2735382515    1.4522217449
H        3.4620365696    0.6722292471   -0.0892371057
H       -0.2179765494   -1.9173149499    0.1133795830
H        0.5878643871   -0.4915028468    0.8343769711
H        0.8647724603   -2.1414373688    1.5187620590
H        3.4583223859   -2.0875226619    1.2731131293
24   
torsion grid (30,)
C        7.2701864365   -2.4684422410   -1.5397333043
C        6.1335097499   -2.2436542760   -2.3208660307
C        7.1839402510   -2.3520004894   -0.1487828190
C        4.9166570271   -1.8988802151   -1.7250123325
C        5.9673594036   -2.0142481497    0.4478721223
C        4.8257996919   -1.7729147078   -0.3316797560
C        3.4778939680    0.1308735201    0.6507982845
C        0.7104937020   -1.6704567074    0.7001662901
C        3.5530331049   -1.3823778038    0.4004776619
O        2.1343574063   -3.3876842398   -0.7271589740
O        1.7993730497   -1.0225756816   -1.6359465532
S        2.0400382626   -1.9362972773   -0.5027022898
H        8.2127421258   -2.7381821697   -2.0088979935
H        6.1887947770   -2.3402641485   -3.4019436818
H        8.0578499506   -2.5334190641    0.4714782255
H        4.0495231612   -1.7202604958   -2.3516600115
H        5.9043756260   -1.9411305227    1.5320448356
H        4.3844242782    0.4488478563    1.1731140355
H        2.6185329057    0.4097202340    1.2679420466
H        3.4193929881    0.6674747380   -0.2988413785
H       -0.1820754053   -2.0850075726    0.2275130795
H        0.5786013464   -0.6045227640    0.8837104585
H        0.9363619664   -2.2172741729    1.6170187945
H        3.5028864203   -1.9328648381    1.3454668996
24   
torsion grid (45,)
C        7.2512314993   -2.4904886950   -1.5312000783
C        6.1620688830   -2.0740499954   -2.3031328896
C        7.1301923196   -2.5410233882   -0.1394309453
C        4.9610536881   -1.7009765850   -1.6948859617
C        5.9266610405   -2.1780484835    0.4708070754
C        4.8377395544   -1.7434932169   -0.2975565150
C        3.4337159419    0.1975791863    0.5299060890
C        0.7366678811   -1.7050590178    0.7598028684
C        3.5703256001   -1.3271514837    0.4217945869
O        2.2388568454   -3.4968326700   -0.4865590722
O        1.7992880215   -1.2529118528   -1.6320723410
S        2.0790037132   -2.0360727673   -0.4127653578
H        8.1830890934   -2.7797593691   -2.0100945161
H        6.2442709058   -2.0431762146   -3.3863918039
H        7.9665114451   -2.8720536851    0.4706876189
H        4.1234711149   -1.3805538199   -2.3062079278
H        5.8338991012   -2.2360540265    1.5534363799
H        4.3347295533    0.5994193313    1.0019936568
H        2.5729383622    0.4969160440    1.1353459118
H        3.3363385772    0.6418472625   -0.4632243628
H       -0.1382326553   -2.2014489009    0.3354384012
H        0.5614911950   -0.6321095499    0.8339914231
H        0.9840625188   -2.1453019923    1.7271354285
H        3.5536662760   -1.7894504267    1.4134752995
24   
torsion grid (60,)
C        7.2284599139   -2.5296912752   -1.5305147462
C        6.2133170553   -1.9174269450   -2.2734076986
C        7.0519960519   -2.7406338318   -0.1600004604
C        5.0320736196   -1.5075890855   -1.6518237481
C        5.8662623465   -2.3387212795    0.4610398135
C        4.8537573093   -1.7083014718   -0.2736917711
C        3.3752629796    0.2509586833    0.3981344546
C        0.7643693344   -1.7328431921    0.7886819633
C        3.5914991816   -1.2661729860    0.4315735647
O        2.3706767302   -3.5863239343   -0.2158509663
O        1.8465946068   -1.5176794365   -1.6282424791
S        2.1397513149   -2.1369703670   -0.3214365098
H        8.1467671370   -2.8467289360   -2.0179680909
H        6.3384701592   -1.7637750818   -3.3420173631
H        7.8307913920   -3.2244955502    0.4235505027
H        4.2420293637   -1.0504888270   -2.2392002020
H        5.7264898754   -2.5205867072    1.5242692803
H        4.2590817448    0.7421280797    0.8151288697
H        2.5077787401    0.5578376497    0.9897543912
H        3.2380229126    0.5999691041   -0.6275010990
H       -0.0788005140   -2.3224830640    0.4235472059
H        0.5350171736   -0.6693217517    0.7262707977
H        1.0196003404   -2.0351554809    1.8057262349
H        3.6064685148   -1.6337390534    1.4619314693
24   
torsion grid (75,)
C        7.2055258286   -2.5635990564   -1.5407622205
C        6.2757375344   -1.7731518691   -2.2246222483
C        6.9679566782   -2.9182919092   -0.2093304553
C        5.1189496689   -1.3303398134   -1.5800029650
C        5.8082665562   -2.4789924577    0.4338199273
C        4.8811981587   -1.6725930646   -0.2398026804
C        3.3210196114    0.2789001872    0.3210757168
C        0.8162855717   -1.7409436411    0.8881427304
C        3.6341080649   -1.2116773273    0.4762123772
O        2.5153460166   -3.6469230754    0.1757915317
O        1.9204315973   -1.8302608060   -1.5278057452
S        2.2211570424   -2.2403810186   -0.1436642043
H        8.1054526529   -2.9066207311   -2.0446567837
H        6.4476780954   -1.5067212401   -3.2641504182
H        7.6801015348   -3.5408620714    0.3257517013
H        4.3913169913   -0.7398958356   -2.1271919024
H        5.6169621681   -2.7719754475    1.4632147611
H        4.2017405573    0.8587310980    0.6111459512
H        2.4887875755    0.5877307540    0.9598522857
H        3.0709568780    0.5255383132   -0.7128626908
H        0.0096542085   -2.4282173804    0.6255443869
H        0.5299268592   -0.7159578324    0.6537018057
H        1.0802550451   -1.8589751363    1.9405739976
H        3.7043027552   -1.4847032294    1.5332521005
24   
torsion grid (90,)
C        7.2103844057   -2.5749591947   -1.5493299436
C        6.4051394233   -1.6200053066   -2.1776824305
C        6.8516391139   -3.0665651252   -0.2898605850
C        5.2492133917   -1.1525109124   -1.5477392474
C        5.6955159638   -2.5995266965    0.3377544723
C        4.8885874517   -1.6332404203   -0.2806921453
C        3.2449470905    0.2993993905    0.1538283226
C        0.8516430604   -1.7744367061    0.9231232702
C        3.6382833049   -1.1547842206    0.4173607909
O        2.6226732622   -3.6552755873    0.3369000099
O        1.9256775374   -2.0122272061   -1.4999207309
S        2.2614685506   -2.2937366709   -0.0926158334
H        8.1096272419   -2.9377905706   -2.0403730307
H        6.6732343358   -1.2423642555   -3.1608908943
H        7.4680695240   -3.8152412437    0.2006153035
H        4.6224339952   -0.4262969906   -2.0547959143
H        5.4072999187   -2.9968247283    1.3072729470
H        4.1074519047    0.9456886936    0.3394366102
H        2.4362271019    0.6211991223    0.8154405286
H        2.9188686753    0.4434337702   -0.8784400916
H        0.0771342091   -2.5227541271    0.7440817490
H        0.5079217816   -0.7907026106    0.6042475072
H        1.1422859651   -1.7821082305    1.9751880240
H        3.7327769766   -1.3409786725    1.4915803318
24   
torsion grid (105,)
C        7.2436825060   -2.5573633274   -1.5645019040
C        6.5355447168   -1.4848245116   -2.1131369557
C        6.7772547636   -3.1683646916   -0.3954618398
C        5.3681581833   -1.0244286433   -1.4975336813
C        5.6128761527   -2.7072424270    0.2198755230
C        4.8938680688   -1.6316473799   -0.3265511293
C        3.1845493808    0.2705772987    0.0130930243
C        0.8941436370   -1.7855426752    1.0226303615
C        3.6444493942   -1.1418722543    0.3712575547
O        2.6915422313   -3.6683845133    0.5513300771
O        1.8981771344   -2.2196645087   -1.4047744673
S        2.2850472054   -2.3597601959    0.0097597317
H        8.1514267646   -2.9150095658   -2.0436230730
H        6.8893781434   -1.0054868085   -3.0221153402
H        7.3198517445   -4.0047372375    0.0371291263
H        4.8259717221   -0.1979776673   -1.9448373932
H        5.2467126960   -3.1937444751    1.1188402978
H        4.0199630841    0.9666948328    0.1296787121
H        2.3797792185    0.6061452954    0.6721011492
H        2.8270773158    0.3230934430   -1.0178504308
H        0.1451771166   -2.5768224118    0.9534265291
H        0.4991276607   -0.8544691683    0.6171548008
H        1.2220614670   -1.6717281668    2.0574923262
H        3.7773571509   -1.2396022310    1.4537032823
24   
torsion grid (120,)
C        7.2741009032   -2.5322642459   -1.5396812332
C        6.6532107199   -1.3697157256   -2.0015677990
C        6.6976247484   -3.2481700973   -0.4849717470
C        5.4622330429   -0.9282645761   -1.4167871445
C        5.5119043306   -2.8056643505    0.1023628490
C        4.8695247211   -1.6466947509   -0.3686666078
C        3.1158251152    0.2319235122   -0.1178005887
C        0.8937217452   -1.7406776395    1.1122104164
C        3.6191852676   -1.1394948305    0.3267446652
O        2.6876997327   -3.6478897287    0.7813454504
O        1.8366760319   -2.4056763415   -1.2875048391
S        2.2634981251   -2.3996320265    0.1217643112
H        8.1999411809   -2.8759201131   -1.9937526560
H        7.0939084745   -0.8017794485   -2.8167724204
H        7.1745622889   -4.1515490196   -0.1140273382
H        4.9960443035   -0.0267641164   -1.7992968588
H        5.0705092739   -3.3698337061    0.9167598137
H        3.9170710896    0.9685874827   -0.0127359990
H        2.2817445099    0.5706698902    0.5011216110
H        2.7873088070    0.2148372585   -1.1597301278
H        0.1608777092   -2.5490571873    1.1484198539
H        0.4660588053   -0.8652424384    0.6248087776
H        1.2482793137   -1.5140543610    2.1193859617
H        3.7879695458   -1.1493505602    1.4093922952
24   
torsion grid (135,)
C        7.3093277222   -2.5024787922   -1.5539177459
C        6.7669131063   -1.2604202371   -1.8880489419
C        6.6397346507   -3.3152090657   -0.6337934605
C        5.5633346880   -0.8395699670   -1.3136948723
C        5.4426002244   -2.8934504100   -0.0535228141
C        4.8726967892   -1.6553726697   -0.4043861595
C        3.0604294478    0.1759308905   -0.2318597887
C        0.9107919913   -1.6888381223    1.1817292998
C        3.6217004998   -1.1421197717    0.2995351245
O        2.7302594502   -3.5877532843    1.0828229834
O        1.8503916914   -2.6366390955   -1.1236844283
S        2.2872240764   -2.4404437976    0.2682790979
H        8.2439822930   -2.8317380811   -2.0004890395
H        7.2777769703   -0.6126374002   -2.5957469742
H        7.0538435260   -4.2813951686   -0.3576024331
H        5.1647799291    0.1263152405   -1.6029521106
H        4.9430728550   -3.5331108582    0.6645811600
H        3.8148944104    0.9615535322   -0.1425330880
H        2.1945041802    0.5054732734    0.3458450574
H        2.7667539872    0.0855960331   -1.2805473600
H        0.2178826946   -2.5139655890    1.3574897688
H        0.4337742381   -0.9166485066    0.5796317973
H        1.2725383000   -1.2988541821    2.1349412846
H        3.8320090703   -1.0549874577    1.3722034618
24   
torsion grid (150,)
C        7.3339869304   -2.4962670879   -1.5562256465
C        6.8934912950   -1.1831550778   -1.7305335929
C        6.5563031429   -3.3792661205   -0.8024783011
C        5.6852061947   -0.7646756168   -1.1655609251
C        5.3540845777   -2.9605791268   -0.2282955527
C        4.8867605679   -1.6476489473   -0.4195861504
C        3.0088093274    0.1182553107   -0.3887970910
C        0.9315184127   -1.6216711830    1.2260509445
C        3.6232743046   -1.1221608424    0.2648837170
O        2.7921704215   -3.4762738020    1.3377466909
O        1.8812463000   -2.8135274105   -0.9595899884
S        2.3211684185   -2.4427458984    0.3953697207
H        8.2709430570   -2.8257166689   -1.9977372069
H        7.4864559185   -0.4779942809   -2.3073082301
H        6.8876563754   -4.4031400485   -0.6502914385
H        5.3725250965    0.2600180860   -1.3308872366
H        4.7856839847   -3.6613929976    0.3707134070
H        3.7134944840    0.9512929342   -0.3489650439
H        2.1117497758    0.4508163479    0.1368413426
H        2.7537953792   -0.0776835850   -1.4330570154
H        0.2821157643   -2.4426037191    1.5360523529
H        0.4080268352   -0.9659018713    0.5317751112
H        1.2923948281   -1.0833855305    2.1044404732
H        3.8506357907   -0.9181886028    1.3185840887
24   
torsion grid (165,)
C        7.3434375380   -2.4676059876   -1.5490081033
C        6.9991626340   -1.1138305242   -1.5290563920
C        6.4680654677   -3.3987085781   -0.9865976110
C        5.7896021320   -0.7048970391   -0.9627459325
C        5.2618723742   -2.9898155169   -0.4103963055
C        4.8978887731   -1.6334871280   -0.3977232045
C        2.9324343236    0.0044815700   -0.5793576782
C        0.9735633625   -1.5928682790    1.3216045688
C        3.6090756174   -1.1044475296    0.2380541043
O        2.8989663045   -3.3761543045    1.5396931556
O        1.8975548749   -2.9527583057   -0.7749876561
S        2.3639642125   -2.4464342477    0.5267892564
H        8.2808485347   -2.7907951905   -1.9940717922
H        7.6686579241   -0.3711676051   -1.9553330358
H        6.7210915246   -4.4556426936   -0.9895548491
H        5.5566163494    0.3548411705   -0.9613251975
H        4.6203429990   -3.7402894197    0.0333518647
H        3.6067883019    0.8532813507   -0.7010975785
H        2.0377554132    0.3879380088   -0.0838995863
H        2.6590473056   -0.3662161945   -1.5699970124
H        0.3590009056   -2.4000831871    1.7247308525
H        0.4108315432   -1.0183746020    0.5872579765
H        1.3426248634   -0.9663506982    2.1356704273
H        3.8262614068   -0.7527519207    1.2541447827
24   
torsion grid (180,)
C        7.3635829651   -2.4194399233   -1.5309711033
C        7.1064209544   -1.0622121343   -1.3138777454
C        6.3946333347   -3.3616688827   -1.1815876814
C        5.8895211825   -0.6620077342   -0.7598953157
C        5.1770100823   -2.9617316431   -0.6207899942
C        4.9102058648   -1.6034588454   -0.3982948324
C        2.9096402163   -0.0833313240   -0.8021806918
C        1.0351047829   -1.4922230810    1.3953860857
C        3.6007101724   -1.0556546655    0.1668676090
O        2.9989585931   -3.2411637963    1.6440572046
O        1.8769815392   -2.9888197535   -0.6379261811
S        2.3979573712   -2.3887304521    0.6029786090
H        8.3076641665   -2.7368657937   -1.9659160720
H        7.8501079901   -0.3140398401   -1.5757364896
H        6.5800714336   -4.4199441502   -1.3450622166
H        5.7144140197    0.3976184592   -0.5906558075
H        4.4526287436   -3.7230591821   -0.3606857370
H        3.5990338290    0.7141433896   -1.0853426712
H        2.0320578310    0.3900857380   -0.3538362630
H        2.6049251190   -0.6112245182   -1.7088113340
H        0.4134379156   -2.2744162998    1.8353902848
H        0.4688044677   -0.9324057264    0.6522335401
H        1.4301744971   -0.8452702533    2.1805316317
H        3.7974226140   -0.5686914553    1.1291847227
