25   
torsion grid (-165,)
C        0.8543825085   -1.2188980211    2.0672164135
N        0.7190807109    0.1288697898    1.5440379857
C       -0.0755407589    0.3974828574    0.5847256159
N       -1.1092978226   -0.2284658433   -0.0293546892
C       -1.8610525004   -1.2878610788    0.6459091519
C       -1.5993768628    0.2300034254   -1.3079540880
C       -0.9347160755   -0.1324594869   -2.4957741320
C       -1.4484835031    0.2080342199   -3.7367106876
C       -2.7026417103    0.9267662528   -3.8898717554
C       -3.3454942380    1.2806938224   -2.6319881069
C       -2.8132953352    0.9395368959   -1.4008762879
O       -3.1975130882    1.2223670630   -5.0192607194
N        0.1164137707    1.8180374324    0.0612635046
O        1.1183073180    2.0493121248   -0.6163996735
O       -0.6932728059    2.6602602351    0.4627302639
H        0.6427303637   -2.0066487914    1.3309820222
H        0.2061359225   -1.3898966092    2.9389456458
H        1.8866807185   -1.3509169669    2.4116272748
H       -1.7222515492   -1.2360555232    1.7274453135
H       -2.9201410729   -1.1377089187    0.4238450094
H       -1.5770025300   -2.2860145145    0.2889945514
H        0.0048201756   -0.6810950997   -2.4215392751
H       -0.9183846945   -0.0641556752   -4.6475219360
H       -4.2729607351    1.8470818067   -2.6939757915
H       -3.3172122877    1.2429799692   -0.4827698139
25   
torsion grid (-150,)
C        2.3299905269   -0.2381560961    0.2431375710
N        1.2528399689    0.5503517419    0.8152104117
C        0.0845688026    0.4918494435    0.3064760649
N       -0.5378066688   -0.3252347081   -0.5779758231
C       -0.1782423453   -1.7366872473   -0.6946259699
C       -1.5858554038    0.1932431571   -1.4185439304
C       -2.9149372212   -0.2553360936   -1.2817380091
C       -3.9044395633    0.1768066313   -2.1471525147
C       -3.6423577249    1.1057773492   -3.2378618230
C       -2.2615482195    1.5514641379   -3.3225327289
C       -1.2812848788    1.0997265199   -2.4541492419
O       -4.5446033385    1.4903915095   -4.0412852732
N       -0.8662649702    1.5368092503    0.8901778692
O       -0.5927741249    2.7255913765    0.7288581486
O       -1.7935534118    1.1004306283    1.5820304808
H        3.2686901370    0.3110235544    0.3791207075
H        2.2039138848   -0.4394368378   -0.8300900934
H        2.4500980180   -1.2047360182    0.7539538069
H       -1.1017614759   -2.3181103578   -0.7646574854
H        0.4202468640   -1.9391636402   -1.5921073230
H        0.3708625232   -2.0662292772    0.1901882470
H       -3.1610201674   -0.9303316510   -0.4617693646
H       -4.9315463398   -0.1619708927   -2.0241550195
H       -2.0165268820    2.2600539232   -4.1114848284
H       -0.2529407532    1.4484450619   -2.5571247550
25   
torsion grid (-135,)
C        2.2880080860   -0.1282881846   -0.0120382070
N        1.2720228733    0.6287268653    0.6984665891
C        0.0500682101    0.4853106894    0.3603521852
N       -0.6247638419   -0.3727811456   -0.4461338641
C       -0.2492125497   -1.7800469610   -0.5431580292
C       -1.6046336989    0.1586787765   -1.3538738561
C       -2.9463387765   -0.2711760682   -1.3070064684
C       -3.8708830304    0.1766190529   -2.2340607337
C       -3.5248182500    1.1090658608   -3.2981329956
C       -2.1366312297    1.5398952824   -3.2876364764
C       -1.2218936395    1.0707622832   -2.3593955813
O       -4.3666859197    1.5090342686   -4.1574845335
N       -0.8855389645    1.4874731152    1.0433689152
O       -0.6046956249    2.6835455073    0.9795756495
O       -1.8186100304    1.0052245605    1.6971141309
H        3.2203200654    0.4471207714    0.0011508304
H        2.0227641263   -0.3338651011   -1.0586255599
H        2.4992147797   -1.0915406164    0.4750972556
H       -1.1648622066   -2.3785408271   -0.5663580282
H        0.3245885090   -2.0002031871   -1.4529356061
H        0.3328867022   -2.0764979150    0.3334496469
H       -3.2526453697   -0.9480130220   -0.5093228007
H       -4.9075143873   -0.1516867901   -2.1840082759
H       -1.8313716780    2.2496382814   -4.0542531770
H       -0.1850269182    1.4081159685   -2.3922518859
25   
torsion grid (-120,)
C        2.2053864206   -0.0284277842   -0.2510079501
N        1.2624076369    0.6967460142    0.5830769494
C        0.0162516618    0.4786220749    0.4212854430
N       -0.7137788662   -0.4057903649   -0.3138316058
C       -0.3083733206   -1.8045970597   -0.4186396245
C       -1.6222237210    0.1347401343   -1.2875290958
C       -2.9704492567   -0.2766082240   -1.3230362614
C       -3.8267571742    0.1714139807   -2.3133850358
C       -3.4022023221    1.0899735756   -3.3607326726
C       -2.0136792810    1.5082833727   -3.2612429535
C       -1.1666447672    1.0378352595   -2.2715046793
O       -4.1806246502    1.4895576967   -4.2781197210
N       -0.8785536110    1.4467339042    1.2076316338
O       -0.5648270434    2.6362684422    1.2370886733
O       -1.8181371467    0.9422927768    1.8350818422
H        3.1067438030    0.5835612328   -0.3644505392
H        1.8120034093   -0.2582569091   -1.2503602193
H        2.5155882277   -0.9756125354    0.2140990426
H       -1.2086991315   -2.4270735493   -0.4080425105
H        0.2430084458   -2.0194956443   -1.3437140979
H        0.3077406624   -2.0796848680    0.4425043476
H       -3.3334615072   -0.9447966570   -0.5421254908
H       -4.8673576709   -0.1476382716   -2.3300572637
H       -1.6517227113    2.2094721085   -4.0108709218
H       -0.1278908505    1.3690527596   -2.2402181650
25   
torsion grid (-105,)
C        2.1033197394    0.0499125391   -0.4646661840
N        1.2382206535    0.7529650021    0.4678608358
C       -0.0042778415    0.4712622751    0.4765489833
N       -0.7964351518   -0.4191180084   -0.1982453253
C       -0.3725223934   -1.8147354814   -0.3078089887
C       -1.6327103977    0.1255083152   -1.2353633593
C       -2.9774625298   -0.2847563088   -1.3490674805
C       -3.7727938391    0.1491119605   -2.3952206456
C       -3.2877154368    1.0595817250   -3.4222752735
C       -1.9110338554    1.4864924191   -3.2369230038
C       -1.1232082741    1.0277340813   -2.1936688821
O       -4.0078856489    1.4482026112   -4.3908656093
N       -0.8342845961    1.4097258265    1.3701757198
O       -0.4826671485    2.5852086403    1.4708072929
O       -1.7669582192    0.8929181115    1.9977690727
H        2.9486215038    0.7024757381   -0.7076132074
H        1.6024774116   -0.2357702532   -1.3977916180
H        2.5188623165   -0.8611271342   -0.0101334894
H       -1.2621753594   -2.4518177039   -0.2766119728
H        0.1657035771   -2.0284151853   -1.2411730189
H        0.2632093502   -2.0758124526    0.5444121262
H       -3.3843140491   -0.9494778954   -0.5870358973
H       -4.8084113870   -0.1768456789   -2.4742164836
H       -1.5073594123    2.1877622964   -3.9648952034
H       -0.0944517760    1.3755860257   -2.1020992636
25   
torsion grid (-90,)
C        1.8065673201   -0.7489285074   -1.2925013822
N        1.5649821730    0.0792215526   -0.1242508973
C        0.3556082527    0.1910824530    0.2475155566
N       -0.7726255560   -0.4621032170   -0.2253504404
C       -1.6368900167   -1.1393892855    0.7499000745
C       -1.4663256792    0.1977085606   -1.3223693442
C       -1.5991810579   -0.4914961057   -2.5454098555
C       -2.2784620503    0.0617814445   -3.6194301897
C       -2.8759292779    1.3859325640   -3.5614941208
C       -2.6947820094    2.0623037749   -2.2879931140
C       -2.0232132292    1.4898711666   -1.2179137723
O       -3.4989358609    1.9040763951   -4.5385725547
N        0.2077838734    1.0146436082    1.5490851481
O       -0.9186905197    1.4627297889    1.8042094585
O        1.1919639763    1.1580169330    2.2751006861
H        1.5560516444   -0.1899617323   -2.2034886885
H        1.1816758650   -1.6525942666   -1.2969203279
H        2.8672467888   -1.0158133105   -1.3273079012
H       -2.3684295586   -0.4654688047    1.2092127115
H       -2.1692210508   -1.9339771378    0.2182143376
H       -1.0256553328   -1.5977006359    1.5374281139
H       -1.1581401893   -1.4858931905   -2.6272964291
H       -2.3801832121   -0.4886806342   -4.5533706632
H       -3.1213075904    3.0597254321   -2.1949278737
H       -1.9301604665    2.0314846197   -0.2801694081
25   
torsion grid (-75,)
C        1.7262580219   -0.4100891247   -1.4457679449
N        1.5165422573    0.2051757449   -0.1442408894
C        0.3339694883    0.1526357616    0.3158181389
N       -0.7938679427   -0.4851478756   -0.1623180318
C       -1.7087119690   -1.0871730448    0.8164428124
C       -1.4435509768    0.1334054141   -1.3088654707
C       -1.6773891648   -0.6342494767   -2.4658712187
C       -2.3231879871   -0.0966056201   -3.5688092357
C       -2.7767574495    1.2845510729   -3.6096662706
C       -2.4932679732    2.0368553217   -2.3985311032
C       -1.8595018214    1.4795167979   -1.2971269405
O       -3.3653707843    1.7871587553   -4.6158470998
N        0.2126980680    0.7680848000    1.7135761150
O       -0.7509175628    1.5199775727    1.9059849574
O        1.0491809836    0.4663067713    2.5668225847
H        1.2690836521    0.1950187034   -2.2388173605
H        1.2587562288   -1.4032465764   -1.5044810768
H        2.8012457485   -0.4910131648   -1.6318017457
H       -2.3988213820   -0.3532420280    1.2499737637
H       -2.2903446040   -1.8503731141    0.2933228579
H       -1.1404734902   -1.5719734505    1.6193676274
H       -1.3363223598   -1.6706528724   -2.4793977009
H       -2.5028524168   -0.7041904492   -4.4542849200
H       -2.8109000282    3.0780263161   -2.3783422768
H       -1.6817492998    2.0778152304   -0.4052404474
25   
torsion grid (-60,)
C        1.1211041869    1.8054210161   -1.1782924217
N        0.8431119227    1.4412676140    0.2027832268
C        0.0857108272    0.4400007177    0.3953938067
N       -0.5312122784   -0.4320768074   -0.4695392063
C       -0.8368488171   -1.7927580564   -0.0145737091
C       -1.4659306259    0.1364461397   -1.4235098348
C       -1.3158278991   -0.1259560497   -2.7977107235
C       -2.2022860098    0.3935458707   -3.7288176250
C       -3.3169724478    1.2493414482   -3.3529238885
C       -3.4155932334    1.5002272158   -1.9243460777
C       -2.5294729208    0.9581642036   -1.0041518027
O       -4.1274887128    1.7359873881   -4.1997760721
N       -0.1059948419    0.1203667088    1.8763698808
O        0.8920011723   -0.0597907602    2.5764967231
O       -1.2742103680    0.0470790649    2.2765299968
H        0.2335020871    2.2336384200   -1.6600214304
H        1.4101726433    0.9317565243   -1.7792628422
H        1.9290540493    2.5431568356   -1.1920062890
H       -1.7856822841   -1.8411533783    0.5333417046
H       -0.9094324717   -2.4277982113   -0.9006758870
H       -0.0292742564   -2.1750743608    0.6201079455
H       -0.4765598714   -0.7429294734   -3.1230137941
H       -2.0776301071    0.1793653657   -4.7889837953
H       -4.2336553311    2.1355193110   -1.5892035317
H       -2.6463170706    1.1636587959    0.0597581346
25   
torsion grid (-45,)
C        0.9375524063    1.9301863548   -1.1613777386
N        0.7844955135    1.4462630708    0.2034430163
C        0.1074499787    0.3908633199    0.4045712968
N       -0.5969737443   -0.4543838600   -0.4089726699
C       -0.9212323147   -1.8129311416    0.0341898788
C       -1.4717077636    0.1190063498   -1.4092032031
C       -1.3101230619   -0.2056791767   -2.7680759600
C       -2.1461209282    0.3283062965   -3.7369345962
C       -3.2192226187    1.2576970797   -3.4179112506
C       -3.3306546930    1.5704212992   -2.0025212605
C       -2.4951821591    1.0135321368   -1.0444667800
O       -3.9857750092    1.7532259829   -4.2994729634
N        0.0783068691   -0.0063678061    1.8786670183
O        1.1439236334   -0.2705906055    2.4382999719
O       -1.0335523298   -0.0438258032    2.4185585013
H       -0.0036501833    2.3314186167   -1.5550710363
H        1.2491907150    1.1313449611   -1.8476726021
H        1.6937394128    2.7214894779   -1.1652450451
H       -1.8661400374   -1.8447036936    0.5900880809
H       -1.0152118410   -2.4394451309   -0.8557880163
H       -0.1188039980   -2.2203064644    0.6583055779
H       -0.5006582276   -0.8798172710   -3.0531923696
H       -2.0127250125    0.0670774557   -4.7853788362
H       -4.1163478289    2.2644356885   -1.7091287086
H       -2.6163094363    1.2701884052    0.0082621820
25   
torsion grid (-30,)
C        0.7918124226    2.0297039617   -1.1438631189
N        0.7677641831    1.4274553193    0.1830058865
C        0.1342890461    0.3488066034    0.3946270491
N       -0.6828843510   -0.4606193447   -0.3393460610
C       -1.0316140468   -1.8094164321    0.1124214108
C       -1.4974313274    0.1080627403   -1.3872128068
C       -1.2928090306   -0.2510250220   -2.7312827124
C       -2.0699850003    0.2910200175   -3.7435919350
C       -3.1259663934    1.2589032713   -3.4866817574
C       -3.2885410481    1.5995635743   -2.0826367931
C       -2.5093640040    1.0366846018   -1.0814502790
O       -3.8373620018    1.7622439433   -4.4087430633
N        0.2844297286   -0.1218629775    1.8409958022
O        1.3957739104   -0.4953534820    2.2209782275
O       -0.7330767153   -0.0978009873    2.5422385985
H       -0.1865374210    2.4310479424   -1.4305490986
H        1.0766857630    1.3096470043   -1.9209956283
H        1.5220402650    2.8454458233   -1.1342015567
H       -1.9540800300   -1.8088172371    0.7059554689
H       -1.1845293866   -2.4291319816   -0.7738766024
H       -0.2230214959   -2.2500433772    0.7035852915
H       -0.4949064822   -0.9560996887   -2.9706036548
H       -1.9016633478    0.0058385150   -4.7806754961
H       -4.0634008810    2.3228130790   -1.8346187834
H       -2.6613550141    1.3203396759   -0.0395059002
25   
torsion grid (-15,)
C        0.6711012663    2.1308946879   -1.0920134867
N        0.7912149330    1.3829750791    0.1540304899
C        0.1672504211    0.3016304786    0.3708658276
N       -0.7716564374   -0.4503551313   -0.2705894172
C       -1.1795362730   -1.7715717705    0.2148310562
C       -1.5225445986    0.1085031289   -1.3681436927
C       -1.2428893613   -0.2616593946   -2.6955605192
C       -1.9601142673    0.2750909614   -3.7540755330
C       -3.0326923574    1.2405762062   -3.5646684275
C       -3.2773498629    1.5885978505   -2.1741904688
C       -2.5535707756    1.0347368105   -1.1274825779
O       -3.6922080366    1.7350571746   -4.5287538757
N        0.5038026185   -0.2645270628    1.7502096513
O        1.6088396706   -0.7879346725    1.9082487208
O       -0.3607873530   -0.1555761264    2.6260644144
H       -0.3367427112    2.5312691344   -1.2438478081
H        0.9003788675    1.5167273715   -1.9703449252
H        1.3809638111    2.9639352329   -1.0541289466
H       -2.0432394738   -1.7030846540    0.8879245003
H       -1.4585814476   -2.3707446531   -0.6539315129
H       -0.3623654554   -2.2804119498    0.7340956422
H       -0.4335972649   -0.9693084599   -2.8832968524
H       -1.7313434530   -0.0151282434   -4.7780826148
H       -4.0668614799    2.3112275816   -1.9755124283
H       -2.7632036382    1.3264859628   -0.0976747282
25   
torsion grid (0,)
C        0.5710320359    2.2106822271   -1.0203364845
N        0.8529099826    1.3105505222    0.0923916093
C        0.1913312091    0.2617288264    0.3459723148
N       -0.8919039837   -0.3903396414   -0.1655975051
C       -1.3247340961   -1.7066285636    0.3142005331
C       -1.5788637130    0.1457489409   -1.3162122093
C       -1.2086317498   -0.2359839936   -2.6182392458
C       -1.8612153292    0.2786607040   -3.7291173184
C       -2.9596667453    1.2264473004   -3.6193163731
C       -3.3034509238    1.5826139934   -2.2514131519
C       -2.6395046082    1.0541240339   -1.1535017363
O       -3.5634940177    1.7016037113   -4.6283949687
N        0.7780480674   -0.4733387106    1.5494958663
O        1.5996491454   -1.3665332077    1.3217861037
O        0.4033892540   -0.1266564156    2.6725176571
H       -0.4156917456    2.6784764302   -0.9367174424
H        0.5962556680    1.7053268898   -1.9911209102
H        1.3320021428    2.9984072692   -1.0140475481
H       -2.4014635966   -1.7740264996    0.1505287108
H       -0.8337768344   -2.5186758323   -0.2374489120
H       -1.1307961712   -1.8395400151    1.3815233902
H       -0.3793557008   -0.9337752617   -2.7439449215
H       -1.5603478348   -0.0179779274   -4.7324473509
H       -4.1169638288    2.2928211847   -2.1136291996
H       -2.9204892848    1.3536895775   -0.1429584197
25   
torsion grid (15,)
C        0.4600587113    2.3085194894   -0.8703693477
N        0.9388437528    1.2519683066    0.0133298598
C        0.2582364022    0.2171398986    0.2807967869
N       -0.9283724576   -0.3222010039   -0.1184756165
C       -1.5080864440   -1.5028235113    0.5273973088
C       -1.5796575685    0.1585715146   -1.3123710873
C       -1.0896091129   -0.1950399200   -2.5826751579
C       -1.6997258137    0.2689894955   -3.7396574097
C       -2.8760879112    1.1233752635   -3.7150182092
C       -3.3422703795    1.4523385758   -2.3760294683
C       -2.7145156114    0.9849120871   -1.2313087807
O       -3.4457177101    1.5478202048   -4.7658740806
N        1.0048874420   -0.7021836080    1.2467913321
O        1.4908648418   -1.7347361992    0.7732817587
O        1.0823452380   -0.3617310528    2.4292257890
H       -0.5124339806    2.7052232830   -0.5573377252
H        0.3411532382    1.9666661145   -1.9039165295
H        1.1922880536    3.1225535821   -0.8489978298
H       -2.5945558218   -1.4080311402    0.4767415127
H       -1.2107712366   -2.4263433031    0.0151471591
H       -1.2189796918   -1.5701719111    1.5799610442
H       -0.2043997512   -0.8293743735   -2.6428135627
H       -1.3058588923   -0.0043420967   -4.7169769453
H       -4.2173681393    2.0955750762   -2.3011138339
H       -3.0859998164    1.2707307708   -0.2457644794
25   
torsion grid (30,)
C        0.3971243288    2.3629110589   -0.7292805608
N        0.9820918942    1.2329303288   -0.0188715584
C        0.2933354935    0.1981268855    0.2350326073
N       -0.9667172426   -0.2311394298   -0.0652792441
C       -1.5721027087   -1.3706036156    0.6276722152
C       -1.5889640558    0.1891074763   -1.2986630058
C       -1.0462645338   -0.1936991327   -2.5391850873
C       -1.6286539494    0.2154363365   -3.7306779486
C       -2.8276424377    1.0365777948   -3.7752060893
C       -3.3476380893    1.3974980456   -2.4647615397
C       -2.7447504584    0.9899523986   -1.2845241035
O       -3.3720416017    1.4101236403   -4.8585917760
N        1.0953160760   -0.8362606666    1.0237414276
O        1.3608725518   -1.8947230981    0.4433974942
O        1.4265841712   -0.5612482198    2.1785848602
H       -0.5493504405    2.6893957415   -0.2806492228
H        0.1822976351    2.1236846362   -1.7766740573
H        1.1094029361    3.1936176542   -0.6928296827
H       -2.6523534555   -1.2115177535    0.6490240299
H       -1.3645696182   -2.3144843188    0.1086821775
H       -1.2151068330   -1.4409676422    1.6598007309
H       -0.1452544420   -0.8079794726   -2.5484898249
H       -1.1951759162   -0.0807108322   -4.6842976647
H       -4.2417130365    2.0181852294   -2.4412716098
H       -3.1544589260    1.3031924980   -0.3227100797
25   
torsion grid (45,)
C       -1.5921509633    2.0406882396    1.0906185051
N       -0.2616358963    1.4555392396    1.1779427264
C       -0.0411035768    0.3511189688    0.5911596497
N       -0.7992274997   -0.4754176528   -0.1927157229
C       -0.4182898112   -1.8781544864   -0.3779747215
C       -1.6051849574    0.1137795955   -1.2403831531
C       -2.9937048495   -0.1063435824   -1.2809279362
C       -3.7778383869    0.4437195330   -2.2835712661
C       -3.2261888689    1.2850151948   -3.3347647971
C       -1.7906900969    1.4923043082   -3.2351798870
C       -1.0188641817    0.9201175545   -2.2337261091
O       -3.9379098872    1.7948593334   -4.2533647316
N        1.3845989367   -0.1483449240    0.8137927854
O        1.7509515054   -0.3880289928    1.9657044429
O        2.0848763797   -0.2877216781   -0.1957884090
H       -2.3779702803    1.3107004176    1.3270353104
H       -1.8038617171    2.4124368033    0.0812454120
H       -1.6512668938    2.8732017853    1.7987248672
H       -1.3290302967   -2.4460121271   -0.5817041988
H        0.2724977087   -2.0041156527   -1.2205130159
H        0.0411079656   -2.2796925375    0.5314692162
H       -3.4515712772   -0.7110306028   -0.4962663459
H       -4.8513138322    0.2636260267   -2.3056825563
H       -1.3268353657    2.1176388822   -3.9959957626
H        0.0565872272    1.0960311309   -2.1986163972
25   
torsion grid (60,)
C       -1.6443530822    1.9323337690    1.2733583871
N       -0.2700647127    1.4560337922    1.2334945808
C       -0.0426402115    0.3999861119    0.5656341079
N       -0.8685285748   -0.4454949016   -0.1363644716
C       -0.4769446274   -1.8493211444   -0.3040973994
C       -1.6204969641    0.1315323136   -1.2360869025
C       -3.0178827507   -0.0228066651   -1.2914067185
C       -3.7576842553    0.5069571924   -2.3377391869
C       -3.1487271170    1.2644321048   -3.4201663172
C       -1.7064753177    1.4064581334   -3.3050390536
C       -0.9793180441    0.8551329692   -2.2594891101
O       -3.8199921125    1.7598882442   -4.3766596113
N        1.4200859836   -0.0336263300    0.6260049462
O        1.9397608640   -0.2107310874    1.7292887521
O        1.9903316482   -0.1972718919   -0.4594857974
H       -2.3494159838    1.1221927382    1.5068837623
H       -1.9495769167    2.3391052834    0.3014608964
H       -1.7231385224    2.7165681171    2.0323271045
H       -1.3869633607   -2.4248077526   -0.4893118947
H        0.2073196630   -1.9885717786   -1.1498087686
H       -0.0077478407   -2.2283452822    0.6109876552
H       -3.5160142589   -0.5630242817   -0.4846581705
H       -4.8380906776    0.3767041906   -2.3710721203
H       -1.2003134751    1.9653650037   -4.0902600679
H        0.1028517313    0.9772259288   -2.2172766970
25   
torsion grid (75,)
C       -1.6787129922    1.8046979606    1.5146079381
N       -0.2829178093    1.4362024963    1.3347946286
C       -0.0568733768    0.4662701109    0.5467547866
N       -0.9233875685   -0.3867698902   -0.1082184159
C       -0.5270396479   -1.7942439233   -0.2467763508
C       -1.6244141852    0.1683124265   -1.2570991878
C       -3.0301374531    0.1025156524   -1.3034832464
C       -3.7383833654    0.5870581907   -2.3926072374
C       -3.0841093623    1.2061007078   -3.5344030117
C       -1.6356428017    1.2657828150   -3.4265155122
C       -0.9404937522    0.7623792280   -2.3362532235
O       -3.7235270811    1.6562018060   -4.5344062608
N        1.4294927603    0.1049635227    0.4612051227
O        2.0747222309    0.0045348855    1.5063784396
O        1.8873095089   -0.0919878497   -0.6712954471
H       -2.3114036872    0.9225357574    1.6875682603
H       -2.0697249668    2.2946373076    0.6139668042
H       -1.7585127658    2.4938188418    2.3604792737
H       -1.4379882934   -2.3753560694   -0.4108176182
H        0.1517347722   -1.9559479707   -1.0929183656
H       -0.0502802562   -2.1472229745    0.6755869402
H       -3.5577427561   -0.3402822587   -0.4571959486
H       -4.8250614314    0.5236807650   -2.4175955966
H       -1.0972813473    1.7223742251   -4.2553878218
H        0.1463567119    0.8156590144   -2.3058510445
25   
torsion grid (90,)
C       -1.7220793618    1.5641538444    1.8063469486
N       -0.3274078463    1.3768615117    1.4473274685
C       -0.0902892227    0.5370971856    0.5243097365
N       -0.9613542127   -0.3285089527   -0.1200633997
C       -0.6038025425   -1.7518351505   -0.1761140007
C       -1.6040376314    0.2015633111   -1.3142398730
C       -3.0118605798    0.2772976466   -1.3424929381
C       -3.6906979303    0.7376247221   -2.4597736243
C       -3.0005414412    1.1873077392   -3.6577496353
C       -1.5520008855    1.1080390342   -3.5710375459
C       -0.8871314737    0.6328645132   -2.4503589672
O       -3.6109641899    1.6124120092   -4.6863343333
N        1.4240272901    0.3385495248    0.2762423691
O        2.2183971777    0.6730041128    1.1556642891
O        1.7516574326   -0.1836549465   -0.7983885697
H       -2.2784745192    0.6168385536    1.8178624770
H       -2.2140741241    2.2077932761    1.0655530193
H       -1.7762462077    2.0527546069    2.7840141273
H       -1.5336193375   -2.3180581271   -0.2868063877
H        0.0608250713   -1.9902272746   -1.0137913376
H       -0.1226911662   -2.0544030607    0.7624190865
H       -3.5634494397   -0.0463035689   -0.4586994556
H       -4.7786840618    0.7799835214   -2.4680738242
H       -0.9878778186    1.4369677177   -4.4422348311
H        0.1983581052    0.5777930275   -2.4430628935
25   
torsion grid (105,)
C       -0.8013958501   -0.2734742474    2.3684899469
N        0.2003430446    0.4644400050    1.6173341947
C        0.2852547654    0.2700582206    0.3610318738
N       -0.3532170740   -0.5461356476   -0.5343282229
C       -0.5190089752   -1.9645565825   -0.2176911400
C       -1.3222741751    0.0800452664   -1.3949255795
C       -1.3560412640   -0.2332980058   -2.7697839891
C       -2.3387989583    0.2792724107   -3.5984647007
C       -3.3771504892    1.1786571823   -3.1167462275
C       -3.2738968127    1.5048043438   -1.7043509906
C       -2.2938657018    0.9678418496   -0.8853492426
O       -4.2887275651    1.6394572059   -3.8680937313
N        1.2498514091    1.2421860630   -0.3409466168
O        1.9265778445    0.7770826429   -1.2664459421
O        1.3504251905    2.3872602250    0.0998084062
H       -0.3946906635   -1.2231806487    2.7452295154
H       -1.7058133059   -0.4986378241    1.7901055999
H       -1.0849756956    0.3238063191    3.2415522658
H       -1.4895633374   -2.1912804735    0.2439160669
H       -0.4434338495   -2.5390105046   -1.1464318634
H        0.2845905237   -2.2904564460    0.4506237431
H       -0.5821447409   -0.8865209984   -3.1727968347
H       -2.3561144965    0.0275320865   -4.6574004916
H       -4.0128954539    2.1938868087   -1.2997313105
H       -2.2631204509    1.2414701150    0.1691210670
25   
torsion grid (120,)
C       -0.5964029439   -0.3641758885    2.4788719159
N        0.3097747203    0.4073609612    1.6456672856
C        0.2269419668    0.2803712436    0.3793055963
N       -0.4726922548   -0.5344181311   -0.4586550194
C       -0.6294277284   -1.9550905620   -0.1599324466
C       -1.3747031921    0.0893385953   -1.3876323195
C       -1.3291216556   -0.2267043761   -2.7610431772
C       -2.2526443146    0.3015210194   -3.6458372409
C       -3.3089560445    1.2119968198   -3.2261271057
C       -3.2929321363    1.5305523265   -1.8079940199
C       -2.3699715569    0.9807791101   -0.9337456904
O       -4.1658838685    1.6850969139   -4.0317915426
N        1.0875935833    1.2911320482   -0.3912576867
O        1.7662813874    0.8397343126   -1.3221293326
O        1.1182087720    2.4547010837    0.0081659735
H       -0.1695880540   -1.3412586241    2.7488372350
H       -1.5719602458   -0.5429808494    2.0070808585
H       -0.7574134922    0.1847322478    3.4130077784
H       -1.5911915719   -2.1861643797    0.3171129029
H       -0.5741405692   -2.5136237707   -1.0996498817
H        0.1859998889   -2.2921398273    0.4868757337
H       -0.5381463358   -0.8855767420   -3.1192520119
H       -2.2064797843    0.0555388543   -4.7052097657
H       -4.0519676099    2.2217726802   -1.4465246247
H       -2.4012630417    1.2387543002    0.1255823820
25   
torsion grid (135,)
C       -0.3669627316   -0.4762693472    2.5686140736
N        0.4205472114    0.3365266453    1.6581349411
C        0.1624541611    0.2872196987    0.4094686896
N       -0.6095279151   -0.5057865714   -0.3763154576
C       -0.7500364375   -1.9342581539   -0.1110239629
C       -1.4431996024    0.1099921392   -1.3721291470
C       -1.3224106869   -0.2328716394   -2.7341853324
C       -2.1782478249    0.3007508731   -3.6815055420
C       -3.2380678570    1.2399806514   -3.3408961977
C       -3.3036768721    1.5791830130   -1.9291423841
C       -2.4473287934    1.0247474663   -0.9922476699
O       -4.0319584446    1.7188281361   -4.2056044965
N        0.9188718940    1.3411934423   -0.4045682104
O        1.6283318745    0.9153607309   -1.3243477385
O        0.8525994377    2.5150441580   -0.0424066187
H        0.0954705970   -1.4579892229    2.7481725749
H       -1.3942244372   -0.6490124297    2.2182690679
H       -0.4138924640    0.0358717939    3.5361396984
H       -1.7010166360   -2.1783643184    0.3802987365
H       -0.7151650236   -2.4664011647   -1.0664084120
H        0.0791571897   -2.2860098346    0.5083498157
H       -0.5241410052   -0.9109908922   -3.0362067653
H       -2.0713063800    0.0386188681   -4.7325567106
H       -4.0694330937    2.2901920493   -1.6247801071
H       -2.5369222420    1.2956932751    0.0606029514
25   
torsion grid (150,)
C       -0.1156765827   -0.5910008405    2.6196793315
N        0.5403602053    0.2572587125    1.6402036851
C        0.1090834936    0.2914239987    0.4402416651
N       -0.7462319057   -0.4606075101   -0.2945982130
C       -0.9112291775   -1.8905828440   -0.0433206466
C       -1.5065828088    0.1477800714   -1.3555703897
C       -1.2902486807   -0.2097457341   -2.7015856079
C       -2.0811795684    0.3089284932   -3.7116484183
C       -3.1709197714    1.2406072386   -3.4551630466
C       -3.3388424978    1.5906434990   -2.0545534240
C       -2.5445352072    1.0529112494   -1.0550416580
O       -3.9065645363    1.7043840251   -4.3777698771
N        0.7724682169    1.3869900847   -0.3942794768
O        1.5158896546    1.0013867191   -1.3040005955
O        0.6131568015    2.5570035560   -0.0482510045
H        0.3680913158   -1.5751862015    2.7031572688
H       -1.1819016328   -0.7580613552    2.4111943421
H       -0.0313117569   -0.1119906323    3.6018574548
H       -1.8486865422   -2.1138037883    0.4820425252
H       -0.9325388443   -2.4048356403   -1.0081348157
H       -0.0694641621   -2.2772194385    0.5354908638
H       -0.4674190424   -0.8834369839   -2.9415960994
H       -1.8965723390    0.0400614699   -4.7501463803
H       -4.1301251373    2.2971995793   -1.8111639904
H       -2.7091055760    1.3311416377   -0.0133176959
25   
torsion grid (165,)
C        0.1591237080   -0.7371295961    2.6185984243
N        0.6547744230    0.1668353154    1.5958510723
C        0.0656431910    0.2940371218    0.4730692051
N       -0.8744863337   -0.3956511149   -0.2182121787
C       -1.1237951073   -1.8129093623    0.0520426820
C       -1.5566141470    0.2022181686   -1.3419085605
C       -1.2362458805   -0.1721497089   -2.6621249999
C       -1.9644544240    0.3109437015   -3.7352527437
C       -3.0953885151    1.2140662456   -3.5734904120
C       -3.3743844534    1.5783022110   -2.1942356258
C       -2.6394960377    1.0780076546   -1.1314278694
O       -3.7751796709    1.6435283036   -4.5539235715
N        0.6302874105    1.4537103995   -0.3424878764
O        1.4351020615    1.1534116525   -1.2302674603
O        0.3444923414    2.5977309677    0.0124899201
H        0.6542635517   -1.7181049963    2.5763245144
H       -0.9257971014   -0.9057282931    2.5778333236
H        0.3944901245   -0.3072309200    3.5991519676
H       -2.0249158970   -1.9650693879    0.6596545544
H       -1.2744211062   -2.3126111367   -0.9075776848
H       -0.2678333631   -2.2708225638    0.5518423821
H       -0.3833235819   -0.8303489083   -2.8301087800
H       -1.6966905756    0.0330408602   -4.7530450831
H       -4.1995307388    2.2663832119   -2.0200062611
H       -2.8857059598    1.3667895405   -0.1090631424
25   
torsion grid (180,)
C        0.5394239847   -0.9614658618    2.5001820054
N        0.7389668745    0.1061036815    1.5384728714
C        0.0175081080    0.3105723826    0.5103076080
N       -0.9875753303   -0.3124069802   -0.1543475972
C       -1.4765694001   -1.6319458446    0.2573632804
C       -1.5805666164    0.2616388627   -1.3427546466
C       -1.1365450146   -0.1367429383   -2.6189259179
C       -1.7946212484    0.2792247794   -3.7640248934
C       -2.9786380581    1.1248610810   -3.7227929616
C       -3.3903672137    1.5100851561   -2.3820933822
C       -2.7213349878    1.0813877232   -1.2471667028
O       -3.5967059848    1.4931962931   -4.7670425760
N        0.4370885011    1.5856277054   -0.2110168749
O        1.3411537632    1.4838208217   -1.0437942107
O       -0.0643796794    2.6404254107    0.1854657844
H        1.0183380255   -1.8980078796    2.1790148051
H       -0.5123386472   -1.1812848564    2.7255099311
H        1.0211414340   -0.6681173328    3.4399127904
H       -2.2717264115   -1.5577537514    1.0107609168
H       -1.8920774914   -2.1122834838   -0.6292106632
H       -0.6705647335   -2.2572788514    0.6459606434
H       -0.2485030851   -0.7652470808   -2.6921329844
H       -1.4310671686   -0.0149187434   -4.7469843507
H       -4.2585192419    2.1613348872   -2.2984697377
H       -3.0616064597    1.3904241858   -0.2584673406
