18   
torsion grid (-165,)
C        4.6270966927    1.3396068379    0.7789734347
C        5.8153141178    1.0964818450    0.0819769529
C        3.5008888093    0.5758694451    0.4819788452
C        5.8618472403    0.1018699968   -0.8924592925
C        3.5148826091   -0.4449184230   -0.4880720905
C        4.7286181083   -0.6744128338   -1.1846186653
C        2.2836735621   -1.2595640899   -0.7409974119
C        0.9611452782   -0.7457354508   -0.1804220737
O        2.3102363950   -2.3131868255   -1.3628705277
O        4.7809429624   -1.6336442231   -2.1487385277
H        4.5813080694    2.1127963339    1.5400151446
H        6.7065524412    1.6816155461    0.2931897336
H        2.5831226447    0.7703521212    1.0261850851
H        6.7867794681   -0.0817104067   -1.4377244478
H        0.7814026452    0.3004588054   -0.4468970885
H        0.9477325577   -0.8178904784    0.9129636323
H        0.1598277314   -1.3695544589   -0.5781616335
H        5.6685727147   -1.6233753500   -2.5432211314
18   
torsion grid (-150,)
C        4.6585127884    1.3253513840    0.8376462635
C        5.8224143025    1.1218461314    0.0894084488
C        3.5350958602    0.5453603532    0.5677993571
C        5.8516976153    0.1493007213   -0.9093405541
C        3.5390826447   -0.4554418472   -0.4197621943
C        4.7252046568   -0.6465245060   -1.1678030892
C        2.3294750650   -1.3189274179   -0.6179733540
C        0.9716748726   -0.7230805356   -0.2649841729
O        2.4123609860   -2.4711556056   -1.0185713324
O        4.7422899174   -1.5826471032   -2.1579726222
H        4.6282354269    2.0805231116    1.6173489740
H        6.7086513627    1.7220525900    0.2779972766
H        2.6327111574    0.7061644888    1.1492377289
H        6.7567316002    0.0000722257   -1.4967236648
H        0.8631337876    0.3011082369   -0.6338580594
H        0.8373097111   -0.7014471632    0.8227224105
H        0.1947325855   -1.3600877173   -0.6901282354
H        5.6050501486   -1.5480461586   -2.6019171141
18   
torsion grid (-135,)
C        4.7331959525    1.2636371227    0.9001930485
C        5.8505243356    1.0925700682    0.0777690085
C        3.5968846670    0.4855205618    0.6732472052
C        5.8259732072    0.1524428646   -0.9534683785
C        3.5526908175   -0.4797737978   -0.3443830534
C        4.6898185874   -0.6409093703   -1.1654801992
C        2.3474376450   -1.3659706007   -0.4960317681
C        0.9817799531   -0.7074095964   -0.3783587782
O        2.4567359847   -2.5681771291   -0.6810885094
O        4.6351232808   -1.5488202440   -2.1840681250
H        4.7469849252    1.9917315167    1.7057132627
H        6.7430346741    1.6929145013    0.2330144011
H        2.7299164699    0.6171167048    1.3141439294
H        6.6943019476    0.0295260298   -1.5993103210
H        0.9124727711    0.1652674063   -1.0357810623
H        0.8070324555   -0.3558883929    0.6445513438
H        0.2108980581   -1.4360317447   -0.6337817302
H        5.4731984545   -1.5226002985   -2.6726243334
18   
torsion grid (-120,)
C        4.7931923226    1.2000926927    0.9937830797
C        5.8594682129    1.0832223210    0.0979912696
C        3.6523825601    0.4162230603    0.8024127596
C        5.7838611226    0.1902794025   -0.9736109944
C        3.5638526474   -0.4991186915   -0.2538193540
C        4.6453591268   -0.6066905985   -1.1483216528
C        2.3643015207   -1.4049521641   -0.3769964655
C        1.0135030128   -0.7303356578   -0.5173437641
O        2.4840705131   -2.6188486920   -0.3551166710
O        4.5216850101   -1.4759211183   -2.1987234962
H        4.8484426293    1.8910404039    1.8297252732
H        6.7520238244    1.6897404249    0.2263893822
H        2.8235000729    0.5000754034    1.5009362751
H        6.6114202273    0.1106004794   -1.6770883252
H        0.9870566684   -0.1761494179   -1.4629741864
H        0.8506807414    0.0024796721    0.2797719298
H        0.2188988268   -1.4783163582   -0.5049380849
H        5.3384704578   -1.4590578250   -2.7220217428
18   
torsion grid (-105,)
C        4.8517518851    1.1634171748    1.0561759584
C        5.8579603112    1.0883783030    0.0893418735
C        3.7104667848    0.3667378121    0.9204157414
C        5.7233625339    0.2266369246   -1.0028102222
C        3.5680921542   -0.5143593490   -0.1557820006
C        4.5823326665   -0.5751215252   -1.1243747486
C        2.3581700551   -1.4159336984   -0.2556185091
C        1.0622067375   -0.7512340314   -0.6681808268
O        2.4380944151   -2.6069942652   -0.0090216923
O        4.3852773762   -1.4207181335   -2.1875240619
H        4.9532173054    1.8322677018    1.9057151302
H        6.7495018187    1.7033465056    0.1779122534
H        2.9254769311    0.4166373743    1.6717580676
H        6.5037372891    0.1778552339   -1.7608560701
H        1.1731764331   -0.3607742567   -1.6868233922
H        0.8480925130    0.1087973105   -0.0241665339
H        0.2383388114   -1.4664239785   -0.6325613902
H        5.1644804019   -1.3950648248   -2.7649044443
18   
torsion grid (-90,)
C        4.9160559263    1.1365734980    1.1236064900
C        5.8488628663    1.1017723192    0.0836526753
C        3.7790536409    0.3245280405    1.0545420556
C        5.6437321573    0.2681006711   -1.0196530575
C        3.5701357022   -0.5278992713   -0.0328433749
C        4.5019527652   -0.5382525501   -1.0805765405
C        2.3326816026   -1.3957114749   -0.1114142600
C        1.1404562662   -0.7836833365   -0.8137570039
O        2.3184530450   -2.5209630130    0.3569036918
O        4.2273965490   -1.3575943326   -2.1505220349
H        5.0710059614    1.7866434395    1.9796614432
H        6.7377010908    1.7255969312    0.1239775654
H        3.0513189991    0.3398982499    1.8625922085
H        6.3675171759    0.2475266841   -1.8330829857
H        1.4218384548   -0.5359909529   -1.8435615084
H        0.8577307698    0.1561337583   -0.3259838761
H        0.2987052657   -1.4787861880   -0.8122726415
H        4.9511854665   -1.2987751830   -2.7938912481
18   
torsion grid (-75,)
C        4.9646008855    1.0871091212    1.1678444537
C        5.8469331491    1.0884110608    0.0840062307
C        3.8243311002    0.2788920541    1.1243313596
C        5.5864126289    0.2957756004   -1.0374909069
C        3.5543997712   -0.5279088212    0.0145702474
C        4.4357312317   -0.4989401763   -1.0764737313
C        2.2910490294   -1.3567729080   -0.0306313735
C        1.1904688557   -0.8463074801   -0.9348254158
O        2.1822215197   -2.3746485640    0.6332519179
O        4.1182115719   -1.2846288739   -2.1613047537
H        5.1624362463    1.7053829194    2.0385006174
H        6.7405339633    1.7063564674    0.1054092851
H        3.1369957443    0.2599111083    1.9664446969
H        6.2745788179    0.2975203678   -1.8815558156
H        1.5733151698   -0.7451922435   -1.9554185956
H        0.8772644244    0.1518517776   -0.6071188170
H        0.3395084634   -1.5297716511   -0.9166877944
H        4.8160465581   -1.2027707346   -2.8303932608
18   
torsion grid (-60,)
C        5.0172736542    1.0473224857    1.2079848293
C        5.8632625335    1.0815007100    0.0955726806
C        3.8679055955    0.2546137151    1.1683380485
C        5.5579156869    0.3357640328   -1.0457411530
C        3.5428406989   -0.4978247274    0.0325380840
C        4.3941536927   -0.4406679242   -1.0833818509
C        2.2553897172   -1.2841801730    0.0325156064
C        1.2193090570   -0.9206065887   -1.0093747028
O        2.0621344096   -2.1526932622    0.8700794765
O        4.0576104446   -1.1911842546   -2.1873823198
H        5.2515215490    1.6271865054    2.0958547579
H        6.7657851147    1.6865572287    0.1117039356
H        3.2071431585    0.2026651323    2.0295231377
H        6.2234608628    0.3570331693   -1.9075654032
H        1.6435236555   -1.0189595024   -2.0121513421
H        0.9273875906    0.1286649513   -0.8827573743
H        0.3443589814   -1.5642538366   -0.9020784158
H        4.7473057793   -1.0893013323   -2.8622362642
18   
torsion grid (-45,)
C        5.0067972694    0.9229680880    1.2782730555
C        5.8268721193    1.0021898419    0.1480066876
C        3.8345514321    0.1689904529    1.2190316512
C        5.4696743533    0.3389477398   -1.0277478100
C        3.4536830747   -0.5034783817    0.0479737424
C        4.2798849779   -0.3970756173   -1.0857131113
C        2.1348645352   -1.2265633141    0.0548249762
C        1.2029347326   -1.0634348980   -1.1294546483
O        1.8274949278   -1.9241439668    1.0129609023
O        3.9020725965   -1.0592817068   -2.2300503962
H        5.2789846575    1.4415633018    2.1928008539
H        6.7476161971    1.5788038006    0.1769903274
H        3.1890996690    0.0804692698    2.0881154118
H        6.1144753146    0.3942869532   -1.9037550947
H        1.5039656688   -1.7588833133   -1.9186325894
H        1.2524419539   -0.0555490937   -1.5508553634
H        0.1852220916   -1.3007008614   -0.8131628551
H        4.5708989448   -0.9084055508   -2.9168019547
18   
torsion grid (-30,)
C        5.0624578233    0.8704410180    1.2990194811
C        5.8632615382    0.9650018452    0.1548826730
C        3.8597015068    0.1714424974    1.2314799975
C        5.4547826937    0.3684756622   -1.0380582595
C        3.4201702727   -0.4326383895    0.0407205474
C        4.2347816224   -0.3184262346   -1.1031288431
C        2.0824434162   -1.1168184731    0.0737127847
C        1.2253841478   -1.1640104984   -1.1750139443
O        1.6868712317   -1.6163865210    1.1214240952
O        3.8258113272   -0.9177292821   -2.2698796287
H        5.3747885540    1.3365472328    2.2288587688
H        6.8078223608    1.5016049364    0.1877541102
H        3.2242583587    0.0709863548    2.1060711171
H        6.0839230995    0.4342893344   -1.9247194461
H        1.5783782384   -1.9680058415   -1.8279702303
H        1.2889330914   -0.2368094812   -1.7505913832
H        0.1941603208   -1.3673662707   -0.8802814820
H        4.4992970063   -0.7666532314   -2.9522300888
18   
torsion grid (-15,)
C        5.0712361207    0.8095205799    1.3430864676
C        5.8579286482    0.9053300080    0.1883811704
C        3.8307063186    0.1846207771    1.2692041625
C        5.3959935597    0.3797505656   -1.0166809292
C        3.3329259929   -0.3496817392    0.0655402843
C        4.1400828148   -0.2415563704   -1.0865401818
C        1.9669688507   -0.9783942587    0.1183463729
C        1.1940387871   -1.2542943534   -1.1543168185
O        1.4736859206   -1.2520122201    1.2086316546
O        3.6946223929   -0.7673612745   -2.2743565611
H        5.4249897760    1.2186069697    2.2848710831
H        6.8313701527    1.3875454156    0.2234022444
H        3.2010108201    0.0880213409    2.1479618977
H        6.0112504064    0.4481540566   -1.9129279939
H        1.6541148507   -2.0844340651   -1.6988525797
H        1.2088900016   -0.3944247326   -1.8294089687
H        0.1693771883   -1.5151629096   -0.8845407486
H        4.3732027215   -0.6213989482   -2.9529678628
18   
torsion grid (0,)
C        5.1284751338    0.7432615717    1.3499063815
C        5.9108920167    0.8451576843    0.1925309171
C        3.8570340462    0.1876728171    1.2623512874
C        5.4128038207    0.3926140810   -1.0269797576
C        3.3234197721   -0.2794077708    0.0452145106
C        4.1284891866   -0.1673448331   -1.1090159736
C        1.9337498904   -0.8573048268    0.0966843825
C        1.2650875178   -1.3878726385   -1.1536169350
O        1.3396030369   -0.8958521910    1.1707124412
O        3.6501192687   -0.6094434612   -2.3176794154
H        5.5101685384    1.0939609891    2.3042553710
H        6.9077849933    1.2759943000    0.2368453683
H        3.2262579206    0.0947116883    2.1405710232
H        6.0210014615    0.4716647500   -1.9272001905
H        1.8574753131   -2.1909792144   -1.6013454556
H        1.1847312756   -0.6053551773   -1.9136846525
H        0.2738883876   -1.7548765957   -0.8831012868
H        4.3287242120   -0.4558875732   -2.9946932489
18   
torsion grid (15,)
C        5.1351179575    0.6585506273    1.3729433242
C        5.9158965485    0.7683611540    0.2154732077
C        3.8354138695    0.1734435445    1.2713798605
C        5.3904422376    0.3928231122   -1.0192989835
C        3.2784073366   -0.2209448738    0.0400085981
C        4.0818245784   -0.1039699264   -1.1138198633
C        1.8700865096   -0.7495813735    0.0729884427
C        1.3079095699   -1.5233372468   -1.1010944083
O        1.1817375173   -0.5623996816    1.0720159084
O        3.5654803377   -0.4623076558   -2.3348014620
H        5.5394827323    0.9480634606    2.3384086551
H        6.9332725832    1.1467848312    0.2710502120
H        3.2028886518    0.0835287685    2.1488139252
H        5.9955911936    0.4851020748   -1.9202753912
H        2.0087514145   -2.2840912645   -1.4552432748
H        1.1308097875   -0.8481274025   -1.9437375424
H        0.3662296357   -1.9802590451   -0.7925091326
H        4.2392693897   -0.3050124855   -3.0156510710
18   
torsion grid (30,)
C        4.6184216248    1.9488353362    0.1211762847
C        5.7578247597    1.1441280495    0.0050482073
C        3.3673883606    1.3994550551   -0.1487915337
C        5.6361466329   -0.1932558156   -0.3723188755
C        3.2150596021    0.0531707961   -0.5233995807
C        4.3723372440   -0.7439007767   -0.6253993550
C        1.8128973219   -0.4423377016   -0.7404687105
C        1.4681057873   -1.8892588513   -0.4512843283
O        0.9522597830    0.3377801071   -1.1334838865
O        4.2403039422   -2.0573379738   -1.0064187258
H        4.7081924491    2.9895247020    0.4183534116
H        6.7437562943    1.5547944070    0.2063210301
H        2.4675172785    2.0029211241   -0.0791484834
H        6.5246238524   -0.8153208609   -0.4721221986
H        1.9912327446   -2.2663351839    0.4314293986
H        1.7789817591   -2.5126426175   -1.2951524629
H        0.3868078527   -1.9694126747   -0.3247331426
H        5.1219018060   -2.4610128779   -1.0493129168
18   
torsion grid (45,)
C        4.5909996126    1.9198982825    0.1897968630
C        5.7384056598    1.1319702725    0.0522052429
C        3.3485217975    1.3794524673   -0.1423505275
C        5.6373721112   -0.1833703443   -0.4055636242
C        3.2220419174    0.0596335885   -0.6014098246
C        4.3839200762   -0.7254187165   -0.7149911570
C        1.8346918615   -0.4603526646   -0.8603798952
C        1.4611311885   -1.8382610584   -0.3510849767
O        1.0270537827    0.2333183756   -1.4650997872
O        4.2538550163   -2.0177116090   -1.1664604960
H        4.6653116522    2.9416294954    0.5502590915
H        6.7159420183    1.5376643600    0.2990427628
H        2.4450650709    1.9764318979   -0.0579161552
H        6.5331381168   -0.7920683034   -0.5209381216
H        1.9414906354   -2.0631393844    0.6052198105
H        1.8039654326   -2.5889734049   -1.0694222154
H        0.3746631852   -1.8991038664   -0.2618170174
H        5.1327841914   -2.4269602470   -1.2078890802
18   
torsion grid (60,)
C        4.5595933824    1.8433950385    0.2442051294
C        5.7168068130    1.0854391681    0.0422673430
C        3.3209942259    1.3122009200   -0.1228595379
C        5.6323709059   -0.1929983523   -0.5147970528
C        3.2153102445    0.0315659858   -0.6802451758
C        4.3850741678   -0.7243400544   -0.8622580726
C        1.8424455386   -0.5069537389   -0.9982159472
C        1.4030693149   -1.7586342866   -0.2692631657
O        1.1161401861    0.0785887958   -1.7873624500
O        4.2587014247   -1.9791415970   -1.4143028307
H        4.6214993984    2.8368898897    0.6784321902
H        6.6895218590    1.4859767299    0.3148929786
H        2.4129768997    1.8939017551    0.0115494267
H        6.5357129787   -0.7786675720   -0.6794113325
H        1.3848361989   -1.5621730228    0.8094213024
H        2.1200155559   -2.5663431307   -0.4385146135
H        0.4085487802   -2.0549931125   -0.6075401697
H        5.1410333369   -2.3677637821   -1.5235781986
18   
torsion grid (75,)
C        4.6380389926    1.8279650777    0.3634081575
C        5.8025046723    1.0913166008    0.1297454773
C        3.4030636912    1.3038495868   -0.0309010475
C        5.7319228559   -0.1625046943   -0.4841292585
C        3.3155575694    0.0559228621   -0.6556512217
C        4.4897833962   -0.6832445906   -0.8624044551
C        1.9654380337   -0.5117720335   -1.0299061409
C        1.4445069915   -1.6273931890   -0.1504391060
O        1.3447828057   -0.0803509062   -1.9876724287
O        4.3573277868   -1.9196221042   -1.4529481775
H        4.6898598251    2.8004062600    0.8441594845
H        6.7702950702    1.4877841374    0.4247460260
H        2.4915630276    1.8729178005    0.1342092868
H        6.6398996551   -0.7357696139   -0.6657369090
H        1.3374401262   -1.2658731305    0.8789510558
H        2.1703949712   -2.4466113128   -0.1305712613
H        0.4825609472   -1.9841470984   -0.5232213567
H        5.2361647889   -2.3137366718   -1.5698856033
18   
torsion grid (90,)
C        4.6249164158    1.7790533593    0.4284142097
C        5.8087265298    1.0939583819    0.1419174635
C        3.4005374546    1.2315428047    0.0308123805
C        5.7691367269   -0.1315260341   -0.5296470276
C        3.3466811074    0.0168816626   -0.6579508535
C        4.5393267847   -0.6720997195   -0.9206928699
C        2.0198771503   -0.5797359306   -1.0753637381
C        1.3757734925   -1.5199254175   -0.0801551643
O        1.5206576661   -0.3175840944   -2.1559881538
O        4.4303050001   -1.8860419321   -1.5578415484
H        4.6528081038    2.7290726758    0.9538822380
H        6.7674791558    1.5074701558    0.4429451163
H        2.4746967573    1.7611136779    0.2433097827
H        6.6918256556   -0.6681608364   -0.7455678397
H        1.2231352423   -1.0080584466    0.8768304127
H        2.0563741096   -2.3572196887    0.1114813891
H        0.4245931924   -1.8910855677   -0.4664453770
H        5.3167160582   -2.2514530387   -1.7061792758
18   
torsion grid (105,)
C        4.5987756076    1.6995390700    0.4773771283
C        5.8111741385    1.0999478736    0.1260469478
C        3.3982166425    1.0905258672    0.0986740018
C        5.8226166943   -0.0972021353   -0.5952092410
C        3.3916869922   -0.0971020893   -0.6391019227
C        4.6159303007   -0.6936751802   -0.9794935209
C        2.0871847237   -0.7101781558   -1.0964175000
C        1.2650856337   -1.4037372421   -0.0311914052
O        1.7301557335   -0.6361835467   -2.2595434158
O        4.5662578751   -1.8809076567   -1.6666412303
H        4.5865211971    2.6295123304    1.0380657509
H        6.7529789130    1.5581811027    0.4157097323
H        2.4508999399    1.5542250522    0.3647366931
H        6.7684616304   -0.5684739044   -0.8584094356
H        1.0976580588   -0.7367029978    0.8216143280
H        1.8303714603   -2.2631486318    0.3486338871
H        0.3116710383   -1.7394627961   -0.4432838131
H        5.4696741176   -2.1718678114   -1.8675476148
18   
torsion grid (120,)
C        4.5784958861    1.6281277910    0.5339369455
C        5.8076907322    1.1076008153    0.1203340120
C        3.4013787212    0.9691336356    0.1695990263
C        5.8559707767   -0.0563879048   -0.6505945774
C        3.4262049063   -0.1879581299   -0.6189379394
C        4.6713580115   -0.7009941555   -1.0285936934
C        2.1378877973   -0.8202347928   -1.0829251959
C        1.1756255404   -1.2743740464   -0.0026232797
O        1.8879815207   -0.9476324658   -2.2702262920
O        4.6758937363   -1.8567255750   -1.7624789491
H        4.5360567794    2.5340896997    1.1311807966
H        6.7341213098    1.6021884077    0.3998127524
H        2.4430522181    1.3747380586    0.4843627338
H        6.8161344246   -0.4661784327   -0.9608255902
H        0.9647172789   -0.4673590573    0.7066823089
H        1.6401659836   -2.0839151848    0.5726602995
H        0.2466912270   -1.6274297651   -0.4536710937
H        5.5916367516   -2.0871554962   -1.9851714461
18   
torsion grid (135,)
C        4.5760470658    1.5316009262    0.6178693681
C        5.8098451800    1.0875697672    0.1337007369
C        3.4169446641    0.8414438978    0.2592722224
C        5.8760401127   -0.0303155332   -0.6994340872
C        3.4536743531   -0.2734180409   -0.5920956227
C        4.7076690954   -0.7087519631   -1.0730602214
C        2.1758328331   -0.9312766444   -1.0345164721
C        1.1055922557   -1.1514701807    0.0230430715
O        1.9925987927   -1.2542381630   -2.1979615084
O        4.7515838550   -1.8197159223   -1.8659702001
H        4.5176230327    2.4019651198    1.2645950043
H        6.7251146490    1.6064438507    0.4060419496
H        2.4583172535    1.1886303674    0.6337399610
H        6.8402255328   -0.3803352941   -1.0655845298
H        0.6963522544   -0.1950759510    0.3669008456
H        1.5232177659   -1.6574075639    0.8995552564
H        0.2960942858   -1.7439932463   -0.4059355187
H        5.6765170478   -2.0069304352   -2.0921830124
18   
torsion grid (150,)
C        4.5652778897    1.4590312523    0.6888051527
C        5.8011010257    1.0912022018    0.1473813723
C        3.4274350723    0.7374725325    0.3308362737
C        5.8857813578    0.0176881263   -0.7385233669
C        3.4775583867   -0.3374060656   -0.5740335306
C        4.7369879184   -0.6969754077   -1.1105117834
C        2.2133881338   -1.0303573759   -0.9864769779
C        1.0558472073   -1.0333433434    0.0049740466
O        2.0871661829   -1.5527743022   -2.0846804934
O        4.8188283639   -1.7614736099   -1.9575175156
H        4.4912700686    2.2938848419    1.3792217523
H        6.7025794331    1.6356338920    0.4160076203
H        2.4696438571    1.0246451470    0.7532398855
H        6.8514225642   -0.2720950362   -1.1507403025
H        0.5692746063   -0.0512523803    0.0241676748
H        1.3864832443   -1.2603824563    1.0228039425
H        0.3213435379   -1.7695064826   -0.3247578193
H        5.7513053436   -1.9026663120   -2.1881753400
18   
torsion grid (165,)
C        4.6051919740    1.4025279083    0.7101875496
C        5.8250389886    1.0684875699    0.1125531937
C        3.4648002041    0.6795404853    0.3686604652
C        5.8878980934    0.0269359848   -0.8105742289
C        3.4892135273   -0.3712251236   -0.5686234661
C        4.7358618246   -0.6953198738   -1.1617716679
C        2.2250241493   -1.0910946188   -0.9251419581
C        1.0110602124   -0.8892379025   -0.0235376849
O        2.1364675447   -1.8138897475   -1.9086454575
O        4.8111468126   -1.7205747737   -2.0537222394
H        4.5465598294    2.2126546933    1.4308542798
H        6.7295351926    1.6155321538    0.3653916648
H        2.5226919536    0.9439902537    0.8363955562
H        6.8400437660   -0.2348622328   -1.2703525173
H        0.6182277239    0.1290219715   -0.1220618844
H        1.2520268839   -1.0520886913    1.0315711724
H        0.2367152088   -1.5905820728   -0.3365273115
H        5.7386377257   -1.8248941115   -2.3229561535
18   
torsion grid (180,)
C        4.6175738150    1.3703458811    0.7433022047
C        5.8252068169    1.0844918408    0.0976513556
C        3.4864228486    0.6250098687    0.4213921094
C        5.8837541404    0.0672067421   -0.8517535538
C        3.5073906624   -0.4113223481   -0.5332161564
C        4.7424753098   -0.6846901973   -1.1765876843
C        2.2589114601   -1.1798853726   -0.8387200581
C        0.9847052644   -0.8031420917   -0.0881923961
O        2.2285406038   -2.0876906978   -1.6594192722
O        4.8170897968   -1.6746764832   -2.1067075763
H        4.5612246848    2.1615401432    1.4848807519
H        6.7222878639    1.6518751850    0.3314333429
H        2.5552829033    0.8540166338    0.9272929189
H        6.8250367593   -0.1537379104   -1.3534920272
H        0.7015014455    0.2379589535   -0.2762584574
H        1.1056023694   -0.9243607602    0.9935452642
H        0.1846368839   -1.4586326545   -0.4336434736
H        5.7307894330   -1.7170232489   -2.4344067557
