23   
torsion grid (-165,)
C        1.9899652006   -1.6051537279   -1.8930906344
C        1.9719247597   -2.2082100465   -0.6957358384
C        2.7234072330   -3.9313910491    1.2760847183
C        4.7684540197   -2.2217398306    0.6424971766
C        0.7749073759   -0.7270181200   -2.0917618676
C        0.7696670625   -1.7960773492    0.1335983344
C       -0.1563945416   -1.1465501500   -0.9264345961
C        4.1345491345   -3.8272173776   -1.4743276175
S        3.4322730966   -3.0414635275    0.0618759577
H        2.7906298434   -1.6685990315   -2.6245195711
H        3.4382218668   -4.5542903447    1.8044150949
H        1.7679266217   -4.3695776348    1.0022864202
H        5.3532321848   -1.7478209502   -0.1426895347
H        4.5330617634   -1.6217107801    1.5167375244
H        1.0720640656    0.3292314296   -2.0195352912
H        0.3106015805   -0.8556671258   -3.0756981145
H        0.2980692392   -2.6319282394    0.6535568274
H        1.0826405565   -1.0852927169    0.9079494959
H       -0.7330089579   -0.3097926572   -0.5233677861
H       -0.8692551973   -1.8950256609   -1.2865431553
H        4.8971062428   -4.5190701788   -1.1150985437
H        3.3233954520   -4.3591456433   -1.9729034149
H        4.5814831786   -3.0816492742   -2.1359573681
23   
torsion grid (-150,)
C        1.8988416794   -1.7626594704   -1.9635862611
C        1.9690565494   -2.2230190880   -0.7058585860
C        2.6641934551   -4.0685771420    1.1612615870
C        4.6751571613   -2.2451205594    0.7739581555
C        0.7151414403   -0.8380710466   -2.1475908379
C        0.8753067965   -1.6535226691    0.1770769411
C       -0.1162176063   -1.0666041652   -0.8594933026
C        4.2255391698   -3.7141356833   -1.4848322215
S        3.4086347258   -3.0701102881    0.0592894879
H        2.6094424455   -1.9651992030   -2.7588491285
H        3.3650101221   -4.7103927436    1.6857897195
H        1.7362420768   -4.5036988669    0.7991675115
H        5.2816074429   -1.6907704083    0.0612733683
H        4.3678967970   -1.7256246577    1.6768393168
H        1.0697163973    0.1996945827   -2.2281911841
H        0.1494927778   -1.0480184778   -3.0620367747
H        0.4243755647   -2.4031274813    0.8297019022
H        1.2977505001   -0.8812973895    0.8325974328
H       -0.6043114183   -0.1551451360   -0.5045268549
H       -0.9004283417   -1.8026633824   -1.0624039759
H        5.0089646885   -4.3836178130   -1.1285251096
H        3.4751334807   -4.2617520522   -2.0563988876
H        4.6583758765   -2.9017268455   -2.0733240818
23   
torsion grid (-135,)
C        1.8136754221   -1.8940238921   -1.9990814765
C        1.9781971680   -2.2150336595   -0.7078276917
C        2.6103271005   -4.1809875044    1.0443559235
C        4.5976260413   -2.2898986005    0.8911136391
C        0.6512137878   -0.9413211563   -2.1833721014
C        0.9806190555   -1.5178221239    0.1955063271
C       -0.0736878888   -0.9966057657   -0.8137821084
C        4.3001628623   -3.6085358068   -1.4826621125
S        3.3923592727   -3.0943846614    0.0597610398
H        2.4387969596   -2.2183546394   -2.8247289122
H        3.2916444542   -4.8429754412    1.5696457958
H        1.7108952190   -4.6008455921    0.6010176674
H        5.2312029905   -1.6840718787    0.2474266081
H        4.2351599061   -1.8372622350    1.8090703290
H        1.0320125373    0.0657040631   -2.4065366883
H        0.0013053249   -1.2231043592   -3.0190775153
H        0.5640276717   -2.1873010431    0.9506845496
H        1.4796511182   -0.7018132609    0.7340410125
H       -0.4960517745   -0.0319875200   -0.5205199609
H       -0.8986435193   -1.7134693572   -0.8717982988
H        5.1221999355   -4.2319710606   -1.1298444998
H        3.6116413979   -4.1896822571   -2.0973467282
H        4.6805867386   -2.7394122343   -2.0247065817
23   
torsion grid (-120,)
C        1.7274919772   -2.0145261688   -2.0100736773
C        1.9910424950   -2.2005382128   -0.7095775486
C        2.5635033233   -4.2788170920    0.9217315000
C        4.5259239421   -2.3524412371    0.9997009335
C        0.5806808732   -1.0433879905   -2.2014225346
C        1.0881786838   -1.3844689129    0.1925178588
C       -0.0308374195   -0.9328030801   -0.7801525572
C        4.3693444301   -3.5017062179   -1.4736416544
S        3.3792169123   -3.1176623697    0.0581567218
H        2.2679431796   -2.4531164763   -2.8427098352
H        3.2246060552   -4.9557657620    1.4538449103
H        1.6994263665   -4.6835792749    0.4015938885
H        5.1844185395   -1.7024399523    0.4283616291
H        4.1126090768   -1.9645007722    1.9256008987
H        0.9671836642   -0.0786669592   -2.5599387692
H       -0.1433163319   -1.3880826943   -2.9478660940
H        0.7159158349   -1.9666597842    1.0385947832
H        1.6473604717   -0.5349696001    0.6051250965
H       -0.4019899819    0.0709716304   -0.5575683252
H       -0.8762621191   -1.6228497282   -0.6980817201
H        5.2229759592   -4.0822470432   -1.1225379468
H        3.7429285300   -4.1034362267   -2.1331302588
H        4.6965773189   -2.5834660614   -1.9671890829
23   
torsion grid (-105,)
C        0.8641460643   -2.0271456865   -0.0379762006
C        2.0460433838   -2.0933270952   -0.6634746066
C        4.5140528842   -1.7328779682    0.3627282792
C        4.3894330863   -3.9698684741   -1.2352050486
C       -0.1423406813   -1.2432253490   -0.8558011987
C        2.0447055353   -1.3832081838   -2.0003724475
C        0.7372998470   -0.5531039496   -1.9321550110
C        2.8071515799   -4.2553669768    0.9732634747
S        3.5663279667   -2.9889896000   -0.1679270248
H        0.6166868877   -2.4892166380    0.9126904223
H        5.4940664956   -2.0514401412    0.7041600954
H        3.9716147963   -0.9774256691    0.9234541576
H        3.8600590965   -4.8900251269   -1.4695202644
H        4.8376557930   -3.4170458960   -2.0546715255
H       -0.8776482689   -1.9285232093   -1.3006899926
H       -0.7078935567   -0.5263580503   -0.2504653003
H        2.9373692360   -0.7676388556   -2.1389163413
H        2.0277256584   -2.1193819554   -2.8139488109
H        0.2362448677   -0.4779324302   -2.9007667271
H        0.9755352633    0.4631857097   -1.6038370652
H        3.6402724105   -4.8613430938    1.3309699134
H        2.3415269815   -3.7201227083    1.8013630307
H        2.0748864541   -4.8647786389    0.4384364080
23   
torsion grid (-90,)
C        0.9201776694   -1.8948027784    0.0388741208
C        2.0408928558   -2.1003087423   -0.6623536090
C        4.4398765840   -1.7212269673    0.5022320919
C        4.4836425579   -3.8613451533   -1.2267499794
C       -0.1038719037   -1.1363870803   -0.7819494502
C        1.9776140721   -1.5281181493   -2.0606268882
C        0.7259320900   -0.6157156164   -1.9864165972
C        2.7926879605   -4.3382953284    0.8621341604
S        3.5711753769   -2.9759764577   -0.1512678826
H        0.7299092506   -2.2362826945    1.0521789718
H        5.4178952317   -2.0184956882    0.8671755807
H        3.8442687603   -1.0091350800    1.0638299027
H        4.0087808589   -4.7886669163   -1.5365331751
H        4.9545382836   -3.2482396984   -1.9884307301
H       -0.9095130632   -1.8142970376   -1.0972930017
H       -0.5783948506   -0.3266430685   -0.2168723320
H        2.8887448735   -0.9831332376   -2.3237728217
H        1.8616585756   -2.3365004038   -2.7936398580
H        0.1559072724   -0.6075970938   -2.9191498748
H        1.0448344668    0.4113258588   -1.7847336160
H        3.6194144439   -4.9449542928    1.2336456148
H        2.2556667485   -3.8724011402    1.6888415006
H        2.1130836661   -4.9279632201    0.2422160885
23   
torsion grid (-75,)
C        1.0011518969   -1.7371617062    0.1059784261
C        2.0474308957   -2.0834782948   -0.6508022945
C        4.3831193338   -1.7387797666    0.6599522288
C        4.5695595475   -3.7417877967   -1.2169847624
C       -0.0547170765   -1.0257339476   -0.7167754255
C        1.8974001503   -1.6735166301   -2.0969014553
C        0.6904448762   -0.7002941972   -2.0399631804
C        2.7758493536   -4.4074102969    0.7267604707
S        3.5836515796   -2.9569849443   -0.1342678211
H        0.8857207134   -1.9494021325    1.1655062284
H        5.3371990808   -2.0439603177    1.0772220108
H        3.7416162479   -1.0539333374    1.2029093716
H        4.1516039326   -4.6657775934   -1.6064326919
H        5.0804307396   -3.0718993404   -1.9002989628
H       -0.9160013184   -1.6888498060   -0.8791072763
H       -0.4393286876   -0.1280095654   -0.2203853082
H        2.8051452021   -1.2047611296   -2.4890225541
H        1.6976918015   -2.5526209159   -2.7230725897
H        0.0446938840   -0.7805747393   -2.9183101056
H        1.0638152381    0.3272055526   -1.9974664311
H        3.5868129369   -5.0233599497    1.1179885286
H        2.1634762999   -4.0081948912    1.5359418209
H        2.1581551534   -4.9658742402    0.0188699893
23   
torsion grid (-60,)
C        1.1034389905   -1.5488399078    0.1551694685
C        2.0697523140   -2.0383153281   -0.6274943895
C        4.3451174381   -1.7835991629    0.8384721080
C        4.6572275033   -3.6039137959   -1.1973169504
C        0.0025021545   -0.9130052855   -0.6701229274
C        1.8057430381   -1.8315652368   -2.0997842913
C        0.6353152730   -0.8127334254   -2.0850226331
C        2.7526999127   -4.4543972928    0.5573372413
S        3.6045998583   -2.9256491197   -0.1102276878
H        1.0732971644   -1.6142473933    1.2397938317
H        5.2549022979   -2.1350938881    1.3135545960
H        3.6720495476   -1.1209307110    1.3696560431
H        4.2902818769   -4.5047428762   -1.6800059677
H        5.2128012229   -2.8783004069   -1.7808939885
H       -0.8919451804   -1.5515716515   -0.6611983300
H       -0.3052494264    0.0628585558   -0.2785271024
H        2.6882886373   -1.4621506985   -2.6310817002
H        1.5271730537   -2.7810861675   -2.5762617943
H       -0.0881765310   -0.9937155135   -2.8841887373
H        1.0387356111    0.1941418469   -2.2274789091
H        3.5368073313   -5.1083739287    0.9422177182
H        2.0839446603   -4.1261997999    1.3538916918
H        2.1856150331   -4.9437287991   -0.2391490734
23   
torsion grid (-45,)
C        1.2039027050   -1.3568071901    0.1713540391
C        2.0911094504   -1.9932120438   -0.5993029422
C        4.3098298988   -1.8470761328    1.0081231341
C        4.7344321551   -3.4595418100   -1.1738265436
C        0.0603166317   -0.8023964551   -0.6540772274
C        1.7113164677   -1.9939239094   -2.0618910268
C        0.5807265911   -0.9325198546   -2.1109982031
C        2.7430581327   -4.4796695284    0.3823289855
S        3.6229277533   -2.8917168168   -0.0831832360
H        1.2547967324   -1.2651760196    1.2527935513
H        5.1762171150   -2.2612258607    1.5127487899
H        3.6101761782   -1.2323358027    1.5623517583
H        4.4061448159   -4.3169114654   -1.7536479159
H        5.3135380818   -2.6803569161   -1.6567332349
H       -0.8481423820   -1.3976570047   -0.4855888272
H       -0.1879597313    0.2307655584   -0.3869945506
H        2.5578197668   -1.7497330639   -2.7108446184
H        1.3581181967   -2.9886715378   -2.3675500294
H       -0.2093863608   -1.1942640178   -2.8195411296
H        1.0046360067    0.0246668598   -2.4286871752
H        3.5093998680   -5.1761658041    0.7265526247
H        2.0434292228   -4.2299446284    1.1809447490
H        2.2085144853   -4.8812865424   -0.4829927553
23   
torsion grid (-30,)
C        1.2871630559   -1.1982245597    0.1570689479
C        2.0887949388   -1.9789825324   -0.5743033005
C        4.2562355193   -1.9143064849    1.1395101333
C        4.7888163100   -3.3190563883   -1.1552800929
C        0.1179390946   -0.6927303053   -0.6633311324
C        1.6036661998   -2.1453670439   -1.9983610288
C        0.5420243117   -1.0217232304   -2.1188781581
C        2.7692779072   -4.5080542583    0.2404358841
S        3.6237288182   -2.8700609037   -0.0621885165
H        1.4175486665   -0.9614373306    1.2084495604
H        5.1150127008   -2.3672933587    1.6236294653
H        3.5254411685   -1.3985303264    1.7519827044
H        4.4956798726   -4.1245016094   -1.8220314593
H        5.3574683650   -2.4848547657   -1.5513482358
H       -0.8011512999   -1.2212161922   -0.3731473261
H       -0.0721406390    0.3752785515   -0.5099217936
H        2.4133303910   -2.0504745886   -2.7281723960
H        1.1604990844   -3.1408533380   -2.1414153737
H       -0.3016096703   -1.3073630013   -2.7525847335
H        1.0077276471   -0.1382837939   -2.5658462103
H        3.5378438983   -5.1973817473    0.5939631950
H        2.0103620042   -4.3327300556    1.0042991286
H        2.3112634365   -4.8770127234   -0.6811910453
23   
torsion grid (-15,)
C        1.3757497285   -1.0636727802    0.1145776576
C        2.0794742859   -1.9797964202   -0.5589346526
C        4.1738456887   -1.9832029713    1.2593921557
C        4.8387861231   -3.1806532765   -1.1193532171
C        0.1901284019   -0.5805695456   -0.6946025145
C        1.4887096743   -2.2821623445   -1.9211756913
C        0.5030518800   -1.1023171459   -2.1212907264
C        2.8148350538   -4.5392291533    0.1184621652
S        3.6112595917   -2.8584504379   -0.0399861774
H        1.6008369603   -0.6991609494    1.1111048537
H        5.0484452377   -2.4492255285    1.7026324432
H        3.3992088215   -1.6339808656    1.9348392466
H        4.5718751059   -3.9113473448   -1.8781922347
H        5.3675412037   -2.2861675229   -1.4329671315
H       -0.7394275702   -1.0096846733   -0.2946635009
H        0.0744850199    0.5082901549   -0.6584863616
H        2.2513288544   -2.3377330923   -2.7043237569
H        0.9641777592   -3.2473690746   -1.9110164186
H       -0.3938700234   -1.3942060026   -2.6738431192
H        1.0018739508   -0.3127446998   -2.6913679197
H        3.5918625804   -5.2057496021    0.4957329221
H        1.9967223711   -4.4388298991    0.8337437860
H        2.4440210820   -4.8871968110   -0.8489435915
23   
torsion grid (0,)
C        1.4706222818   -0.9545086932    0.0575297970
C        2.0649474021   -1.9906585393   -0.5446655698
C        4.0709631014   -2.0591732810    1.3624227411
C        4.8798130761   -3.0497532483   -1.0713844988
C        0.2708073319   -0.4791146371   -0.7343399547
C        1.3696731566   -2.3962705906   -1.8292546668
C        0.4592276919   -1.1728227074   -2.1088258357
C        2.8699628082   -4.5695147528   -0.0026249796
S        3.5952198886   -2.8537714791   -0.0215210390
H        1.7973457658   -0.4975641184    0.9851273679
H        4.9721466705   -2.5010449008    1.7760629796
H        3.2599934147   -1.8468964723    2.0530396629
H        4.6564447034   -3.7205987246   -1.8972163763
H        5.3655314525   -2.1076037802   -1.3070918895
H       -0.6581829878   -0.7944698052   -0.2388128454
H        0.2286520231    0.6127120933   -0.8145353106
H        2.0737200561   -2.5942214870   -2.6443392274
H        0.7797341555   -3.3102882845   -1.6792476793
H       -0.4872429234   -1.4532297097   -2.5785740970
H        0.9775021744   -0.4890947372   -2.7880279113
H        3.6551304473   -5.2179064137    0.3886733477
H        2.0074223918   -4.5468931713    0.6660979251
H        2.5754876987   -4.8824725460   -1.0071537241
23   
torsion grid (15,)
C        1.5633300950   -0.8698401706   -0.0103972715
C        2.0423791677   -2.0092041089   -0.5235613144
C        3.9661935965   -2.1435769268    1.4479345819
C        4.9116749961   -2.9349971276   -1.0178310570
C        0.3540651964   -0.3898118403   -0.7836882736
C        1.2605280017   -2.4810217256   -1.7337890187
C        0.4092774074   -1.2324075245   -2.0851696470
C        2.9317186253   -4.5948033499   -0.1128691429
S        3.5807819180   -2.8545987069   -0.0066562168
H        1.9830398212   -0.3522755963    0.8454668682
H        4.8787497109   -2.5602548221    1.8622087781
H        3.1188959098   -2.0190939999    2.1161080963
H        4.7367484313   -3.5562088332   -1.8931974985
H        5.3541708580   -1.9570846820   -1.1849199378
H       -0.5629842183   -0.5802158142   -0.2087676316
H        0.3835271009    0.6880477697   -0.9778984533
H        1.9091513090   -2.7892622393   -2.5610646775
H        0.6302651003   -3.3424950991   -1.4773033013
H       -0.5815490475   -1.4950467211   -2.4651852571
H        0.9211097404   -0.6581806435   -2.8633793472
H        3.7316007757   -5.2298821545    0.2700851906
H        2.0489515045   -4.6488377584    0.5271789820
H        2.6832957809   -4.8641079115   -1.1419662345
23   
torsion grid (30,)
C        1.6621199250   -0.7972262492   -0.1002111189
C        2.0236641126   -2.0205554710   -0.5070128146
C        3.8590820619   -2.2398670986    1.5207779046
C        4.9527202046   -2.8294786187   -0.9450858204
C        0.4371515028   -0.3126065179   -0.8438330722
C        1.1480886196   -2.5484564728   -1.6272732906
C        0.3402500546   -1.2900778682   -2.0448296402
C        3.0017684081   -4.6090261530   -0.2319572787
S        3.5739924809   -2.8546374249    0.0033522435
H        2.1704674451   -0.2346216741    0.6760871860
H        4.7661824790   -2.6411493144    1.9603388035
H        2.9712203139   -2.1580142011    2.1400131091
H        4.8400445668   -3.4044537818   -1.8616196925
H        5.3622906560   -1.8276118846   -1.0396332259
H       -0.4469108442   -0.3679776790   -0.1935899148
H        0.5275005817    0.7327989912   -1.1592528822
H        1.7283260781   -2.9577456208   -2.4614403264
H        0.4958219269   -3.3528189364   -1.2638938675
H       -0.6911991985   -1.5277922724   -2.3180929956
H        0.8159869536   -0.8341510988   -2.9183692951
H        3.8090797822   -5.2306486577    0.1571121778
H        2.0952286911   -4.7333647221    0.3632585045
H        2.8120449793   -4.8356772600   -1.2835064771
23   
torsion grid (45,)
C        1.7804688004   -0.7329210068   -0.2323164868
C        2.0214201920   -2.0202940716   -0.5111189789
C        3.7398840200   -2.3500153585    1.5826609487
C        5.0167623987   -2.7372366344   -0.8313327919
C        0.5274664131   -0.2428997473   -0.9218372542
C        1.0187285410   -2.6030230711   -1.4899446684
C        0.2457908784   -1.3460881888   -1.9758988227
C        3.0812484834   -4.6075260996   -0.3868637119
S        3.5762418449   -2.8578834479    0.0097254802
H        2.3860500599   -0.1300429228    0.4373975550
H        4.6120038494   -2.7706084590    2.0720953418
H        2.8046501161   -2.2764319474    2.1276170353
H        4.9885610082   -3.2448789659   -1.7930096200
H        5.4120388489   -1.7252796004   -0.8196385723
H       -0.2908055741   -0.1466323315   -0.1948975403
H        0.6599394323    0.7460621665   -1.3746159185
H        1.4910613181   -3.1355533375   -2.3217903005
H        0.3594627088   -3.3209062675   -0.9854417746
H       -0.8213892772   -1.5408137484   -2.1108905054
H        0.6473762652   -1.0312146547   -2.9437667425
H        3.8690849747   -5.2301057128    0.0384410063
H        2.1288515957   -4.7985307266    0.1104181060
H        3.0000248833   -4.7723358523   -1.4636535682
23   
torsion grid (60,)
C        1.9219927032   -0.6852779411   -0.4443801459
C        2.0517968796   -2.0109111102   -0.5685859115
C        3.5794560593   -2.4677734589    1.6298620510
C        5.1062088463   -2.6520858553   -0.6473150432
C        0.6197942389   -0.1962617920   -1.0347451380
C        0.8830073451   -2.6462399822   -1.3005251524
C        0.1242495755   -1.4119843808   -1.8618633931
C        3.1815756861   -4.5751361631   -0.5913120485
S        3.5875161420   -2.8600468244    0.0151176218
H        2.6366894070   -0.0456367143    0.0655365100
H        4.3752956270   -2.9449496550    2.1925931069
H        2.5893698121   -2.3789100687    2.0642557562
H        5.2023700556   -3.0729908367   -1.6457783730
H        5.4887070499   -1.6474899158   -0.4919713997
H       -0.0797765273    0.0689489839   -0.2300942510
H        0.7475749711    0.7036860206   -1.6465374918
H        1.1875785560   -3.3319000718   -2.0967826599
H        0.2651215051   -3.2251281717   -0.6013947025
H       -0.9608424693   -1.5377690919   -1.8200171585
H        0.3982818944   -1.2709175290   -2.9117555624
H        3.9608920832   -5.2165984447   -0.1788866657
H        2.2046418551   -4.8488799595   -0.1908552100
H        3.1834204854   -4.6209070234   -1.6832265228
23   
torsion grid (75,)
C        2.0487314223   -0.6803258544   -0.6859342887
C        2.0846660657   -2.0149841116   -0.6353331452
C        3.4055566232   -2.6022920315    1.6577503189
C        5.1502354757   -2.5663790870   -0.4564222331
C        0.7097375386   -0.1772350529   -1.1722707196
C        0.7809934399   -2.6527282804   -1.0821602727
C        0.0298902242   -1.4561742117   -1.7290876155
C        3.2884510043   -4.5237825773   -0.7886294845
S        3.5853209702   -2.8704421670    0.0258733401
H        2.8599471543   -0.0320627716   -0.3651627969
H        4.1152829053   -3.1519738210    2.2684125784
H        2.3724626366   -2.5231984753    1.9826764690
H        5.3728236848   -2.8995951403   -1.4674331767
H        5.4981130334   -1.5830165644   -0.1563129999
H        0.1496211304    0.2536434547   -0.3309100740
H        0.8006562454    0.6130884966   -1.9255634404
H        0.9158613615   -3.4769288252   -1.7883505888
H        0.2421736781   -3.0589263363   -0.2156231230
H       -1.0449626578   -1.4839856325   -1.5318738474
H        0.1661020672   -1.4942248156   -2.8141583699
H        4.1030365486   -5.1675675974   -0.4554572495
H        2.3286747304   -4.9018266516   -0.4352510353
H        3.2915464989   -4.4242419328   -1.8774400291
23   
torsion grid (90,)
C        2.1319276732   -0.7153058651   -0.8817083102
C        2.0904821898   -2.0302776529   -0.6534817921
C        3.2727368236   -2.7589538039    1.6758191356
C        5.1358020002   -2.4741941758   -0.3129295372
C        0.7849274171   -0.1840105446   -1.3135334252
C        0.7062096591   -2.6165400307   -0.8653233606
C       -0.0224046661   -1.4726335454   -1.6227752327
C        3.3858898436   -4.4665263004   -0.9441920525
S        3.5669612199   -2.8895651930    0.0431182054
H        3.0120292269   -0.0946479654   -0.7321908922
H        3.9541042573   -3.3451929737    2.2851215356
H        2.2174454247   -2.7496026086    1.9344172225
H        5.4450141908   -2.7179124649   -1.3259972155
H        5.4315235326   -1.5187758269    0.1070603765
H        0.3375801028    0.3925925057   -0.4921015971
H        0.8478199498    0.4914922845   -2.1736862949
H        0.7078904326   -3.5498947096   -1.4357853675
H        0.2369524748   -2.8337759724    0.1033011013
H       -1.0756524063   -1.3905536544   -1.3417668168
H        0.0171625626   -1.6740311745   -2.6977269590
H        4.2294245883   -5.0988268087   -0.6648643182
H        2.4434855805   -4.9321114139   -0.6543710464
H        3.3976097037   -4.2459120919   -2.0150651425
23   
torsion grid (105,)
C        2.1819178095   -0.7704041855   -1.0413868609
C        2.0823111114   -2.0402400191   -0.6412660145
C        3.1792595611   -2.9245196679    1.6794226508
C        5.1048288089   -2.3933900574   -0.2006955509
C        0.8361979832   -0.2127207160   -1.4457013338
C        0.6534929034   -2.5503137875   -0.6673085451
C       -0.0589207082   -1.4772037747   -1.5343095931
C        3.4703199382   -4.4000900648   -1.0638113127
S        3.5479633392   -2.9065424173    0.0566962166
H        3.1064903337   -0.1979595807   -1.0363395490
H        3.8707500764   -3.5201187584    2.2677770067
H        2.1170504763   -3.0103391912    1.8904185522
H        5.4691777062   -2.5441483663   -1.2127984712
H        5.3477506439   -1.4721853872    0.3173253327
H        0.4818011151    0.4850908561   -0.6744378255
H        0.8703806674    0.3481537173   -2.3859968565
H        0.5535615293   -3.5568819129   -1.0848557987
H        0.2502188567   -2.5853387856    0.3528937849
H       -1.0869069833   -1.2931087162   -1.2109796227
H       -0.0955356448   -1.8215809362   -2.5725748431
H        4.2798115478   -5.0619347538   -0.7532429354
H        2.5017257358   -4.8779668423   -0.9120413976
H        3.5912749740   -4.0914166389   -2.1054488171
23   
torsion grid (120,)
C        2.2103788320   -0.8320487204   -1.1716517475
C        2.0740942233   -2.0342860336   -0.6071722191
C        3.1117249293   -3.0866200743    1.6735029907
C        5.0807720043   -2.3390255913   -0.0931361683
C        0.8689731892   -0.2580884398   -1.5703451183
C        0.6258954573   -2.4700159728   -0.4983679292
C       -0.0848368307   -1.4772358613   -1.4573235547
C        3.5309813069   -4.3193578560   -1.1585964744
S        3.5341587796   -2.9152049734    0.0734203585
H        3.1592911914   -0.3128109462   -1.2842378315
H        3.8186557734   -3.6892698007    2.2354220808
H        2.0513842498   -3.2527532048    1.8381051454
H        5.4795906830   -2.4022215554   -1.1011635347
H        5.2783990727   -1.4530083965    0.5002076105
H        0.5900151926    0.5449179001   -0.8742178059
H        0.8743504327    0.1824681492   -2.5732329958
H        0.4608661645   -3.5158853074   -0.7767174119
H        0.2810982120   -2.3554613115    0.5368743032
H       -1.0847963242   -1.2033761026   -1.1104101772
H       -0.1925325775   -1.9434931253   -2.4417708624
H        4.2978481981   -5.0230091224   -0.8315529376
H        2.5428163492   -4.7811784868   -1.1263205661
H        3.7457932723   -3.9381951533   -2.1599769384
23   
torsion grid (135,)
C        2.2219168047   -0.9073996343   -1.2913148219
C        2.0676880428   -2.0223612111   -0.5731016313
C        3.0514305780   -3.2428325672    1.6493108890
C        5.0655079604   -2.3026898893    0.0211858631
C        0.8853070395   -0.3203971604   -1.6878708554
C        0.6126575848   -2.3834318579   -0.3506913999
C       -0.1128053620   -1.4673908230   -1.3736693661
C        3.5940063239   -4.2270984570   -1.2419148854
S        3.5261686209   -2.9184029658    0.0898151165
H        3.1827645254   -0.4473143628   -1.5106945316
H        3.7647076760   -3.8563173492    2.1902512274
H        1.9938957997   -3.4571389713    1.7630076652
H        5.4972926356   -2.2863797213   -0.9749954757
H        5.2192399678   -1.4517205532    0.6761048167
H        0.6809541614    0.5770574046   -1.0881285740
H        0.8532285588   -0.0102755646   -2.7380518960
H        0.3997413736   -3.4454876347   -0.5115819811
H        0.3283991479   -2.1522149033    0.6829284726
H       -1.0726561772   -1.1020341823   -0.9989745414
H       -0.3104577811   -2.0348529938   -2.2884805263
H        4.3342965626   -4.9616299554   -0.9209640380
H        2.6011265605   -4.6769020744   -1.3021182032
H        3.8705111771   -3.7779445588   -2.1987131066
23   
torsion grid (150,)
C        2.2171150587   -1.0167376862   -1.4245317266
C        2.0573673641   -2.0244790860   -0.5624638890
C        2.9792767828   -3.3993349512    1.5985229355
C        5.0458995804   -2.2835250458    0.1540048440
C        0.8894939924   -0.3958880693   -1.7987991283
C        0.6036089349   -2.2718628809   -0.2101190303
C       -0.1427733039   -1.4344937580   -1.2841448891
C        3.6836235284   -4.1350286513   -1.3184184554
S        3.5165985115   -2.9291831228    0.1002841209
H        3.1810757688   -0.6388414491   -1.7584200771
H        3.6908733331   -4.0205187426    2.1315004079
H        1.9244458373   -3.6423575422    1.6543804358
H        5.5228660670   -2.1913813172   -0.8172844249
H        5.1430773718   -1.4676800311    0.8628167942
H        0.7797501797    0.5753958279   -1.2971427474
H        0.7967643796   -0.2062127030   -2.8737265499
H        0.3261159275   -3.3305142993   -0.2401061761
H        0.4049620992   -1.9159631167    0.8075199363
H       -1.0520112755   -0.9697431379   -0.8936165946
H       -0.4362880357   -2.0898437247   -2.1101919369
H        4.4226183137   -4.8772837236   -1.0121004684
H        2.7037363458   -4.5950923656   -1.4602308380
H        3.9967250195   -3.6145904097   -2.2263943264
23   
torsion grid (165,)
C        2.1786963947   -1.1855881846   -1.5867691484
C        2.0329516769   -2.0678525262   -0.5931211114
C        2.8945162747   -3.5723441510    1.5148010016
C        4.9938432166   -2.2577043646    0.3146052454
C        0.8748718483   -0.4940952120   -1.9141998770
C        0.6093917795   -2.1320469341   -0.0734687719
C       -0.1775014762   -1.3503977903   -1.1607798087
C        3.8290297169   -4.0428024463   -1.3885750406
S        3.4992901062   -2.9571630034    0.0961861606
H        3.1274714577   -0.9259437743   -2.0517288129
H        3.6102923591   -4.1908044338    2.0452265784
H        1.8576347520   -3.8851805882    1.4788389536
H        5.5189187579   -2.0535545687   -0.6146089517
H        4.9925461957   -1.4878695507    1.0801283666
H        0.9025446817    0.5416297092   -1.5483948374
H        0.6817742344   -0.4405962084   -2.9913467892
H        0.2399376563   -3.1552137881    0.0435677371
H        0.5526593099   -1.6571437385    0.9121607431
H       -0.9853254279   -0.7478031727   -0.7372165999
H       -0.6296304697   -2.0618444379   -1.8586865274
H        4.5859455647   -4.7647692552   -1.0780173523
H        2.8876904674   -4.5385470037   -1.6316079824
H        4.1773727042   -3.4475245633   -2.2356549589
23   
torsion grid (180,)
C        2.0923086985   -1.4010871188   -1.7608205461
C        1.9966625121   -2.1466101045   -0.6527506856
C        2.8056398834   -3.7596948158    1.3979917218
C        4.8931250379   -2.2326702552    0.4864743114
C        0.8295824724   -0.6091350177   -2.0124047756
C        0.6660157725   -1.9599331403    0.0528011477
C       -0.1862495477   -1.2485690448   -1.0312605107
C        3.9988003032   -3.9384908277   -1.4476133713
S        3.4684127082   -3.0001827710    0.0761556719
H        2.9830342352   -1.3004421467   -2.3762238843
H        3.5263089446   -4.3726074534    1.9289990860
H        1.8073533173   -4.1543300620    1.2433737696
H        5.4546003610   -1.8824197665   -0.3764106307
H        4.7665177711   -1.5401967589    1.3136340940
H        1.0097468673    0.4511072181   -1.7846241136
H        0.4980877951   -0.6535815424   -3.0557076375
H        0.2146792713   -2.8990204482    0.3815503031
H        0.8048829655   -1.3470046965    0.9503434340
H       -0.8789690055   -0.5180270001   -0.6050973970
H       -0.7822601970   -1.9947750440   -1.5659127574
H        4.7578476596   -4.6443896588   -1.1079692386
H        3.1182714128   -4.4567675201   -1.8293382626
H        4.4105225422   -3.2663320113   -2.2038515121
