26   
torsion grid (-165,)
C        6.1136507452    0.3227951194    1.2658325452
C        5.7260062128    1.1027883368    0.2037468525
C        4.0437475412   -0.1707173150    0.8872667146
C        1.8393511921   -1.4131263336   -1.1773185389
C        2.6540367330   -2.0687055066    1.8825143462
C        2.1040385843   -0.7945425321    2.4642082624
C        2.6996588466   -0.7950376197    1.0601459195
C        0.6860202773   -1.2311480429   -2.1522870997
C        3.6113584985    1.3782303139   -1.1135047098
N        5.0639390573   -0.4636152078    1.6823940668
N        4.3926971702    0.7927206437   -0.0313016099
N        1.7464236733   -0.6878281742   -0.0141157121
O        2.7894761687   -2.1495692561   -1.4207067125
H        7.0820246202    0.2782930940    1.7472313406
H        6.2525854176    1.8245418768   -0.4046275595
H        3.6082956208   -2.4247361564    2.2512558114
H        1.9544858812   -2.8233963644    1.5401540689
H        1.0251842395   -0.6862743829    2.5491276525
H        2.6892303831   -0.2911947201    3.2263551636
H       -0.0549678065   -0.4936274828   -1.8300771127
H        0.1887907646   -2.1960429535   -2.2858419290
H        1.0880518151   -0.9343203002   -3.1243836941
H        3.4170277406    0.6436610756   -1.8984424691
H        4.1845778481    2.2029818055   -1.5404181972
H        2.6638942778    1.7746306178   -0.7436569891
H        0.9477821504   -0.0824483654    0.1178395838
26   
torsion grid (-150,)
C        6.1755447670    0.0930746512    1.0361319953
C        5.7276383011    1.0269568826    0.1323826700
C        4.0537358722   -0.2508595843    0.8291997394
C        1.9156947681   -1.5253106693   -1.1880654613
C        2.5730638407   -1.9726589909    1.9916181403
C        2.0578684759   -0.6257703403    2.4292111752
C        2.6842904238   -0.7956112743    1.0487984180
C        0.8251852211   -1.3646108959   -2.2372262811
C        3.4820969686    1.5920474035   -0.8463690368
N        5.1296963796   -0.6945150797    1.4620413001
N        4.3625384613    0.8115996122    0.0101601337
N        1.7630673337   -0.7547462627   -0.0594332684
O        2.8633308443   -2.2868631722   -1.3433677012
H        7.1848119646   -0.0611754838    1.3954072633
H        6.2318154449    1.7976089211   -0.4338536306
H        3.5045723789   -2.3289452438    2.4142109963
H        1.8495061768   -2.7301287434    1.7112220008
H        0.9819374436   -0.4737702773    2.4766027675
H        2.6391192909   -0.0672536821    3.1555344938
H        0.0803517864   -0.6019771623   -1.9907422091
H        0.3182695165   -2.3255741098   -2.3620181315
H        1.2909558894   -1.1150051018   -3.1940474185
H        3.1692294095    1.0190603521   -1.7232262747
H        4.0213051516    2.4802522910   -1.1805895896
H        2.5961461378    1.9178752851   -0.2960639337
H        0.9763937408   -0.1227285303   -0.0051408296
26   
torsion grid (-135,)
C        6.2106064244   -0.1239973967    0.8619811404
C        5.7375706293    0.9475480635    0.1395827557
C        4.0630547199   -0.3305551486    0.8366929839
C        1.9167805180   -1.7145055719   -1.1027630157
C        2.5085097984   -1.9055588019    2.1046436297
C        2.0236015210   -0.5133635913    2.4239524185
C        2.6754423427   -0.8129403727    1.0780892445
C        0.8993171168   -1.5537167962   -2.2235677145
C        3.4269452201    1.7410992668   -0.4906670591
N        5.1640743401   -0.9118980034    1.2865633640
N        4.3583012706    0.8175967723    0.1360244094
N        1.7831952187   -0.8296662620   -0.0563895893
O        2.7900484633   -2.5723954845   -1.1346806037
H        7.2384367299   -0.3752711098    1.0899635101
H        6.2327616455    1.7665967499   -0.3634061630
H        3.4199701352   -2.2587006574    2.5714893215
H        1.7687110404   -2.6621703243    1.8692284316
H        0.9516757834   -0.3304086671    2.4317909564
H        2.5995546635    0.0846388574    3.1230200414
H        0.1721824638   -0.7538658441   -2.0536617341
H        0.3646113111   -2.4990729971   -2.3476270620
H        1.4345293187   -1.3564772200   -3.1564677877
H        3.0357680170    1.3376802527   -1.4295401883
H        3.9431488473    2.6805686941   -0.6967629610
H        2.5919686118    1.9520773894    0.1830190023
H        1.0579481090   -0.1275742431   -0.1064446045
26   
torsion grid (-120,)
C        6.1320614660   -0.1439053450    0.7966528908
C        5.6830665884    1.0471674674    0.2704067978
C        3.9793650900   -0.2350811973    0.8875912801
C        1.7838933780   -1.7837741068   -0.9832711184
C        2.3324107142   -1.7000930972    2.1734064246
C        1.8700925250   -0.2813002969    2.3940228063
C        2.5726264757   -0.6741749047    1.0976136716
C        0.8835905840   -1.6149070388   -2.1994351699
C        3.3796787623    2.0145341806   -0.1122604949
N        5.0676286554   -0.9329216742    1.1718634627
N        4.3022542548    0.9879122883    0.3401225509
N        1.7370878495   -0.7448707046   -0.0778894349
O        2.4960001339   -2.7674640107   -0.8316539680
H        7.1548016317   -0.4758934526    0.9209426950
H        6.1973473814    1.9086593570   -0.1328176219
H        3.2132680450   -2.0512698160    2.6972257798
H        1.5857590690   -2.4531739862    1.9511410315
H        0.8041108551   -0.0756574766    2.3390987151
H        2.4267045157    0.3428280593    3.0864882239
H        0.1623420749   -0.7969802927   -2.1071808439
H        0.3465537315   -2.5505786565   -2.3692748074
H        1.5118505072   -1.4315420022   -3.0765424546
H        3.0024829080    1.7972422595   -1.1174666860
H        3.8909870611    2.9790318008   -0.1290640463
H        2.5362114105    2.0873831126    0.5792715282
H        1.1380187541    0.0425425774   -0.2859537332
26   
torsion grid (-105,)
C        6.0833864708   -0.2376438438    0.5356112914
C        5.6539832576    1.0357025997    0.2310508990
C        3.9435491910   -0.2605200212    0.8034692066
C        1.6971714674   -1.9439662511   -0.9705174449
C        2.2594313135   -1.6558874480    2.1291987434
C        1.8080221443   -0.2247409635    2.2771805840
C        2.5313423028   -0.6827362088    1.0137035018
C        0.9092159692   -1.7919907683   -2.2646635956
C        3.3769115730    2.1211795814    0.1391493860
N        5.0149915729   -1.0339053657    0.8819287453
N        4.2830837678    1.0190167426    0.4119329885
N        1.7249556841   -0.8139695536   -0.1773468153
O        2.2539839422   -2.9906586919   -0.6686336414
H        7.0956833772   -0.6210384429    0.5264728243
H        6.1782565145    1.9296775509   -0.0777752967
H        3.1256982761   -1.9934346205    2.6856712271
H        1.5112498911   -2.4129502898    1.9293334587
H        0.7460555271   -0.0125358536    2.1886016318
H        2.3557908747    0.4237736937    2.9546818860
H        0.2655539411   -0.9072047148   -2.2896611756
H        0.2992577986   -2.6858361663   -2.4102416698
H        1.6162906678   -1.7338901057   -3.0981998046
H        3.0570534083    2.1238630443   -0.9094382554
H        3.8746516570    3.0692349618    0.3552176060
H        2.4976326932    2.0412757223    0.7812637296
H        1.2807323709    0.0207471228   -0.5373822994
26   
torsion grid (-90,)
C        5.9136939657   -0.2236267650    0.3238851662
C        5.5508516675    1.1037440309    0.2539745171
C        3.8004978163   -0.1694307899    0.7573338704
C        1.4979079048   -1.9618505887   -0.8993939216
C        2.0768277630   -1.4783139967    2.1374647719
C        1.6421619618   -0.0376108522    2.2073865814
C        2.3811664618   -0.5632253193    0.9794476596
C        0.8265621720   -1.8577715544   -2.2623970819
C        3.3656352458    2.3283067650    0.4755069681
N        4.8214146067   -1.0027614242    0.6278955371
N        4.1968839911    1.1362160485    0.5307976838
N        1.5982358558   -0.7621601571   -0.2190792436
O        1.8986448477   -3.0293097743   -0.4563941138
H        6.8953469925   -0.6564764882    0.1788076090
H        6.1122955329    2.0048862799    0.0481397271
H        2.9282758109   -1.7961593301    2.7278940439
H        1.3274246661   -2.2395540522    1.9629721321
H        0.5859286251    0.1850490002    2.0864607567
H        2.1852386312    0.6310345105    2.8691346007
H        0.2654918951   -0.9296182431   -2.4089042537
H        0.1555207848   -2.7095741035   -2.3886679510
H        1.5988695878   -1.9247847890   -3.0354061021
H        3.2518981295    2.6769169162   -0.5568159885
H        3.8127396008    3.1299560994    1.0703638658
H        2.3808254442    2.1044911367    0.8841741553
H        1.3141834458    0.0700313597   -0.7208832816
26   
torsion grid (-75,)
C        5.9505363256   -0.2698609991   -0.0570384134
C        5.6469030729    1.0655798762    0.0945582948
C        3.8814147746   -0.2027045851    0.5558163833
C        1.5653836773   -2.1840520149   -0.8907434247
C        2.1738104567   -1.4160404596    2.0617356342
C        1.7218898430    0.0182082840    2.0076993859
C        2.4694517101   -0.5966505439    0.8279849813
C        0.9780895104   -2.2051573324   -2.2954900837
C        3.5736989884    2.3306900628    0.7389897413
N        4.8490307514   -1.0435839799    0.2201806942
N        4.3174123455    1.1075581497    0.4728009463
N        1.6960464843   -0.9160480386   -0.3506118539
O        1.8753991300   -3.2123880180   -0.3050912947
H        6.8946533205   -0.7112928866   -0.3501199679
H        6.2334783684    1.9662824848   -0.0237199346
H        3.0279195464   -1.6690938856    2.6796246207
H        1.4375502802   -2.2013716780    1.9531299599
H        0.6642513662    0.2161335892    1.8613658636
H        2.2458437361    0.7452532362    2.6201240304
H        0.4266691292   -1.2959493008   -2.5545432574
H        0.3175055963   -3.0689706855   -2.3879299075
H        1.7973799143   -2.3307387153   -3.0111153282
H        3.9533693389    3.1285928013    0.0970359978
H        3.6744785445    2.6412163461    1.7844444155
H        2.5161054600    2.1827221978    0.5201108601
H        1.5100837009   -0.1446454735   -0.9797953872
26   
torsion grid (-60,)
C        5.0560356527    1.6184617761   -1.0032196281
C        5.7202244226    1.1394471357    0.1037603055
C        3.9421169359   -0.1146172597   -0.3505001552
C        0.6481289188   -0.1387666480   -0.9497942144
C        2.8373013264   -2.3247236955   -1.1394631116
C        3.0887443656   -2.5141338568    0.3303027946
C        2.8407032004   -1.1154207705   -0.2272622019
C       -0.4322803074    0.8128927520   -0.4562333074
C        5.3216701029   -0.7287397216    1.7266324509
N        3.9532026798    0.8437896842   -1.2669864743
N        4.9969895251    0.0392329762    0.5315011508
N        1.5474885656   -0.5252142769    0.0322838898
O        0.6891669608   -0.5262427381   -2.1091999460
H        5.3098337210    2.4730802994   -1.6175129984
H        6.6155795949    1.4635545723    0.6159443820
H        3.6771869264   -2.4078217530   -1.8204644552
H        1.8808844169   -2.6133975689   -1.5540350963
H        2.2911041042   -2.9337872074    0.9355517220
H        4.0903841193   -2.7829834871    0.6450456572
H       -0.6250010965    0.7320698497    0.6181840928
H       -1.3536580072    0.6190822018   -1.0074013082
H       -0.1145405766    1.8381133513   -0.6748249195
H        5.9070054303   -1.6221304665    1.4858939205
H        4.4105363742   -1.0308022547    2.2438479655
H        5.9080453165   -0.0993377652    2.3986952664
H        1.4733104674   -0.0233116796    0.9091319147
26   
torsion grid (-45,)
C        4.1573605443    2.0650489185   -0.8314341055
C        5.1698849811    1.5628416581   -0.0482007148
C        3.4736848343    0.1302814026   -0.1458037418
C        0.2740947131   -0.4151405274   -0.7133947414
C        2.7553690305   -2.2772777409   -0.8611438445
C        3.0148321578   -2.3867849056    0.6162314501
C        2.5735870329   -1.0541870190    0.0158907789
C       -0.8944400292    0.4415710822   -0.2521611274
C        5.4938771787   -0.5054562709    1.3198308937
N        3.1137864018    1.1740072443   -0.8826375993
N        4.7280539088    0.3269585058    0.4002178359
N        1.2068517233   -0.6707428307    0.2836388263
O        0.3567734505   -0.8483214309   -1.8543771948
H        4.1227511905    3.0113846794   -1.3560084113
H        6.1360081701    1.9544651693    0.2380240206
H        3.6106738014   -2.2569148854   -1.5286293301
H        1.8575258786   -2.7109197694   -1.2804265965
H        2.2678603445   -2.8858082814    1.2252066582
H        4.0341977500   -2.5242034588    0.9502528206
H       -1.1587500810    0.2704135712    0.7964026323
H       -1.7586422480    0.2383586299   -0.8854487897
H       -0.6169590423    1.4949956257   -0.3697103516
H        5.9104071508   -1.3837956230    0.8176308248
H        4.8741310341   -0.8280019362    2.1581974376
H        6.3204005620    0.0881963200    1.7132700278
H        1.0916338263   -0.1145416932    1.1230033614
26   
torsion grid (-30,)
C        3.9817351266    2.1879572051   -0.5062653352
C        5.1141737335    1.5897256702   -0.0100025606
C        3.3931546622    0.1858837878    0.0719640366
C        0.3361257760   -0.4219801534   -0.7975509786
C        2.8477052097   -2.2918978065   -0.6088435171
C        2.9378469756   -2.3147058523    0.8947404960
C        2.5303680241   -1.0336355330    0.1686834647
C       -0.8805486882    0.4308790726   -0.4825905924
C        5.6690771697   -0.6567629477    0.9381108971
N        2.9263736993    1.3084419312   -0.4623569303
N        4.7391181152    0.3050662593    0.3588711143
N        1.1362602771   -0.6909975382    0.3076221588
O        0.5689703317   -0.8494642261   -1.9201721311
H        3.8685725486    3.1920380903   -0.8943050731
H        6.1274139301    1.9414218718    0.1254961060
H        3.7704185052   -2.2780374224   -1.1808536173
H        2.0165938441   -2.7803836077   -1.1005331211
H        2.1332000164   -2.8020601827    1.4353601692
H        3.9068448141   -2.3920927065    1.3681073444
H       -1.2953399162    0.2211836067    0.5086639156
H       -1.6440761809    0.2642594361   -1.2430773748
H       -0.5770868782    1.4831824112   -0.5131696532
H        5.6990672932   -1.5810258434    0.3562914547
H        5.4088470212   -0.8868330644    1.9745515879
H        6.6675668002   -0.2178161135    0.9248885948
H        0.9447482240   -0.1054758927    1.1128825614
26   
torsion grid (-15,)
C        3.8826237275    2.2811340510   -0.2288294025
C        5.0578408138    1.6287144417    0.0488593129
C        3.3426641605    0.2199872323    0.1596734818
C        0.3783190171   -0.3902852960   -0.8640458259
C        2.8338205734   -2.3005265966   -0.4302657668
C        2.8746585229   -2.2274931352    1.0745000895
C        2.4817250653   -0.9999331360    0.2557408313
C       -0.8706066813    0.4457171539   -0.6500743753
C        5.6918197033   -0.7064521322    0.6762125862
N        2.8277654684    1.3991703219   -0.1665195109
N        4.7147073186    0.3048015331    0.2909678407
N        1.0816054630   -0.6661587114    0.3040055024
O        0.7188427848   -0.8009768348   -1.9655811980
H        3.7360706761    3.3244583584   -0.4765531091
H        6.0853153005    1.9615821318    0.0975152894
H        3.7658376192   -2.3258096889   -0.9851845332
H        2.0147808777   -2.8220941175   -0.9085985676
H        2.0632578124   -2.6962896071    1.6216061947
H        3.8292778703   -2.2408810964    1.5853104696
H       -1.3692388734    0.2185556122    0.2975848895
H       -1.5608759659    0.2816951954   -1.4781669648
H       -0.5764884582    1.5009943679   -0.6395503794
H        5.5178281255   -1.6456757990    0.1505264262
H        5.6756902867   -0.8873708884    1.7554252475
H        6.6852486799   -0.3484054337    0.4011308941
H        0.8386047160   -0.0641967153    1.0832971261
26   
torsion grid (0,)
C        4.0765861675    2.2313042218    0.0202839710
C        5.2826612968    1.5788144118    0.0639175902
C        3.6101351149    0.1319191320    0.2736788063
C        0.7367819558   -0.5876818686   -0.8428431344
C        3.1841138150   -2.4555959615   -0.1298265695
C        3.1688294785   -2.2313556155    1.3607683920
C        2.7780288750   -1.1036915629    0.4064966875
C       -0.5604794823    0.1924003882   -0.7343385329
C        6.0038072407   -0.8097276902    0.1541417014
N        3.0456772201    1.3261846663    0.1455203621
N        4.9860815635    0.2317709716    0.2333204554
N        1.3687874059   -0.8106614710    0.3752509587
O        1.1770551357   -0.9986900352   -1.9091833854
H        3.8901124370    3.2915908496   -0.0908313844
H        6.3045230390    1.9252314251   -0.0050882135
H        4.1328392555   -2.5320503419   -0.6469163992
H        2.3870209822   -3.0397146365   -0.5727066509
H        2.3558008708   -2.6683497859    1.9311898388
H        4.1054146148   -2.1460332887    1.9013245111
H       -1.1100533102   -0.0371050752    0.1838938804
H       -1.1850214752   -0.0225287461   -1.6020728615
H       -0.3178370782    1.2607874966   -0.7307344551
H        6.0959781896   -1.1945656678   -0.8664658855
H        5.7805075496   -1.6349986962    0.8285324416
H        6.9627251264   -0.3824757094    0.4535604916
H        1.0748839070   -0.1788818790    1.1126749599
26   
torsion grid (15,)
C        4.1180745604    2.2574698918    0.2950933909
C        5.3077796191    1.5942710908    0.1255898921
C        3.6367526545    0.1470717668    0.3327987436
C        0.8380428515   -0.5976778144   -0.8848947518
C        3.2138647452   -2.4676058659    0.0265511755
C        3.1763455094   -2.1565400387    1.5010984994
C        2.8041798602   -1.0861274516    0.4786633514
C       -0.4845033035    0.1468365052   -0.8640546049
C        5.9846197143   -0.8082836291   -0.0817861424
N        3.0880005065    1.3524322793    0.4254198529
N        4.9998139502    0.2398796757    0.1560356478
N        1.3964741745   -0.8014933806    0.3703171221
O        1.3596986497   -0.9957082275   -1.9197197693
H        3.9439783696    3.3250614616    0.3305832321
H        6.3225199220    1.9378985252   -0.0190423731
H        4.1668701022   -2.5967530671   -0.4683157144
H        2.4136768765   -3.0668015828   -0.3901602779
H        2.3636412556   -2.5645290642    2.0934986761
H        4.1127105186   -2.0280210027    2.0358162222
H       -1.0888355530   -0.1027151858    0.0134669250
H       -1.0410881156   -0.0813980915   -1.7736243080
H       -0.2755675350    1.2222142245   -0.8407754062
H        5.8821904323   -1.2257162347   -1.0875400584
H        5.8959225651   -1.6092849648    0.6540859725
H        6.9807098596   -0.3733533663    0.0137187393
H        1.0594991380   -0.1609381148    1.0817264223
26   
torsion grid (30,)
C        4.1165308817    2.2119332667    0.5692884889
C        5.2444142465    1.5555076430    0.1400439495
C        3.5793900988    0.1200262975    0.4368625269
C        0.8810082098   -0.6106237803   -0.9618314349
C        3.1352711236   -2.5146934882    0.2263239283
C        2.9959430926   -2.1066408715    1.6701693853
C        2.7243375180   -1.1002279923    0.5552416069
C       -0.4544511021    0.1035788030   -1.0659142845
C        5.7829628154   -0.8171930683   -0.4719310795
N        3.0888322461    1.3141988025    0.7492640714
N        4.8971805594    0.2138627417    0.0544924784
N        1.3293847226   -0.8048686792    0.3351169737
O        1.5069727316   -0.9924824056   -1.9451899416
H        3.9862809387    3.2703775957    0.7542437983
H        6.2355875841    1.8988721451   -0.1209679630
H        4.1207465561   -2.7113104768   -0.1707373814
H        2.3517365411   -3.1218355947   -0.2109490919
H        2.1380560587   -2.4617472285    2.2324760213
H        3.9005803137   -1.9551492102    2.2516610236
H       -1.1133304676   -0.1156873936   -0.2204742235
H       -0.9423808015   -0.1807274004   -1.9990182655
H       -0.2707143026    1.1836600928   -1.0857532440
H        5.3552484025   -1.2715567027   -1.3683906341
H        5.9817388894   -1.5913937638    0.2742192708
H        6.7324639821   -0.3510453771   -0.7382930266
H        0.9364406021   -0.1680615597    1.0209078897
26   
torsion grid (45,)
C        4.2578866880    2.1433226472    0.8810656255
C        5.2401091835    1.5363449984    0.1316909984
C        3.6736250240    0.0729890952    0.6891873764
C        1.1677776484   -0.5658956058   -0.9993138505
C        3.2607482586   -2.5482201983    0.5045964532
C        2.8936258587   -2.0933907133    1.8922962452
C        2.7921857306   -1.1295956870    0.7146856586
C       -0.1729323343    0.0897158471   -1.2726034364
C        5.4705526824   -0.7362120901   -0.9243628414
N        3.2795843002    1.2317692546    1.2049621479
N        4.8526164191    0.2135982748   -0.0044763629
N        1.4300676615   -0.8365933028    0.3295254121
O        1.9653025174   -0.8406630619   -1.8935632912
H        4.2007720254    3.1764044333    1.1993604896
H        6.1510708766    1.9080079346   -0.3161495109
H        4.3058762452   -2.7304778257    0.2900817705
H        2.5704201507   -3.1918268745   -0.0287019263
H        1.9601521203   -2.4421895850    2.3229766117
H        3.6946601939   -1.9140319186    2.6018981777
H       -0.9296919999   -0.1741349001   -0.5281490937
H       -0.5167278725   -0.1983186109   -2.2670330077
H       -0.0400736482    1.1772380087   -1.2580653509
H        4.6969234400   -1.2141083886   -1.5275655675
H        6.0528514217   -1.4936086363   -0.3905371632
H        6.1423236144   -0.1879886008   -1.5866110919
H        0.9093994879   -0.2919734520    1.0089637991
26   
torsion grid (60,)
C        4.5214969877    2.0147936309    1.1351177888
C        5.3264306498    1.4416297179    0.1739978221
C        3.7638749591    0.0172238662    0.8291458744
C        1.2463027839   -0.6588023755   -0.9559697125
C        3.2845016900   -2.5692174314    0.6942443156
C        2.8566454100   -2.0733300021    2.0508894064
C        2.8266486452   -1.1394021557    0.8514776448
C       -0.0952576290   -0.0397341652   -1.3044284502
C        5.2794962032   -0.7536296564   -1.0674251066
N        3.5449035142    1.1284513413    1.5239292416
N        4.8266378610    0.1693706807   -0.0303186950
N        1.4937053911   -0.8222748523    0.3874168910
O        2.0502713751   -1.0019135341   -1.8225213194
H        4.5923299186    3.0071962471    1.5618715017
H        6.1840268004    1.8087013274   -0.3723852948
H        4.3399917973   -2.7516512273    0.5292780456
H        2.6186466788   -3.2259406274    0.1459747825
H        1.8970184427   -2.4025709233    2.4373957792
H        3.6188618451   -1.8835171846    2.7989177908
H       -0.7930791878   -0.0155105968   -0.4629510269
H       -0.5396549356   -0.6002602045   -2.1295668444
H        0.0736784914    0.9847557938   -1.6511366750
H        4.4134139023   -1.2312358705   -1.5268935125
H        5.9585029350   -1.5087198895   -0.6581778882
H        5.8120152793   -0.1832085959   -1.8305221931
H        0.9343845000   -0.2737184893    1.0309958383
26   
torsion grid (75,)
C        4.6373217081    2.0274823585    1.2974755961
C        5.3035305801    1.5200776782    0.2020153000
C        3.7082428658    0.1317339729    0.8524562417
C        1.1786284219   -0.7025239757   -1.0210332782
C        3.2108662102   -2.4360218923    0.7846165382
C        2.7244759613   -1.8901393294    2.1029206816
C        2.7435136830   -1.0015158468    0.8741386905
C       -0.1721479561   -0.1379152866   -1.4261754097
C        5.0734744496   -0.5786560051   -1.1798650561
N        3.6449390683    1.1604147879    1.6909824965
N        4.6977959368    0.3125666795   -0.0854390051
N        1.4383576724   -0.6998502708    0.3260416269
O        1.9706647707   -1.1430165948   -1.8549621950
H        4.8178170801    2.9597247702    1.8174293858
H        6.1314403019    1.8930197892   -0.3849129355
H        4.2746799257   -2.6097684663    0.6639576887
H        2.5717557410   -3.1176322713    0.2351017453
H        1.7500651269   -2.2115397229    2.4578296609
H        3.4503309633   -1.6652928215    2.8765684504
H       -0.8443577719    0.0374946555   -0.5817708004
H       -0.6451859103   -0.8284693584   -2.1278902840
H       -0.0107403024    0.8085211556   -1.9513960314
H        4.1888210449   -1.1033882227   -1.5399479438
H        5.8349511584   -1.2955508304   -0.8541617057
H        5.4814327563    0.0207811701   -1.9964121736
H        0.8373388024   -0.1390636699    0.9185564656
26   
torsion grid (90,)
C        4.8026609474    1.9294425962    1.5124967437
C        5.3326453970    1.5452068487    0.2993545534
C        3.7022561200    0.1758201496    0.9030464139
C        1.1609979993   -0.8247216989   -1.0817648724
C        3.1660944525   -2.3729213358    0.8391141443
C        2.6144886688   -1.7997225501    2.1197386107
C        2.7069520357   -0.9315479513    0.8812374440
C       -0.1929850444   -0.3098350456   -1.5421606454
C        4.9011369792   -0.3693203374   -1.2814877714
N        3.7921747742    1.0710003495    1.8803933828
N        4.6225418468    0.4262721457   -0.0888249719
N        1.4449439178   -0.6229037556    0.2425969531
O        1.9250313803   -1.3994317195   -1.8591241420
H        5.0914136788    2.7675762915    2.1339023563
H        6.1304958846    1.9492203987   -0.3085591835
H        4.2352245575   -2.5466365508    0.7727408226
H        2.5544121432   -3.0608072697    0.2671963378
H        1.6188229448   -2.1088048411    2.4227449578
H        3.2959639965   -1.5625224849    2.9288406917
H       -0.7915899667    0.1373453680   -0.7438109214
H       -0.7496773165   -1.1400271192   -1.9844383697
H       -0.0336635501    0.4340062083   -2.3277578019
H        4.0288940978   -0.9704475565   -1.5358657332
H        5.7667562924   -1.0192471782   -1.1129012837
H        5.1188049178    0.3001790538   -2.1173245625
H        0.8205333089   -0.0285438452    0.7740897694
26   
torsion grid (105,)
C        5.0828980744    1.6871570586    1.7130521708
C        5.4554562726    1.4398157196    0.4096439055
C        3.7973978380    0.1012286212    1.0115447498
C        1.2326792013   -1.0095251609   -1.0591270787
C        3.1329559574   -2.4125076225    1.0055209934
C        2.5252777944   -1.7568430614    2.2184406382
C        2.7425703558   -0.9486704378    0.9543685175
C       -0.0841044413   -0.4730161415   -1.5984444257
C        4.6977657050   -0.1879914530   -1.3570061590
N        4.0534238534    0.8496816068    2.0784505537
N        4.6335367522    0.4222818691   -0.0333231568
N        1.5524945450   -0.5987943677    0.2080465761
O        1.9344916188   -1.7690578103   -1.7287033912
H        5.4967559768    2.4126382181    2.4017801473
H        6.2127083798    1.8755141943   -0.2277823513
H        4.1966344364   -2.6282286757    1.0171628497
H        2.5324314554   -3.0992681393    0.4213853000
H        1.4960736020   -2.0038452507    2.4600026477
H        3.1593705047   -1.5104283646    3.0621848079
H       -0.5981341610    0.2109080595   -0.9173124705
H       -0.7417723456   -1.3191285803   -1.8156046399
H        0.1101119084    0.0414646329   -2.5431909563
H        3.9987032468   -1.0210254305   -1.4170880717
H        5.7126650573   -0.5484542106   -1.5493259694
H        4.4280339786    0.5433608853   -2.1252321951
H        0.9444702630    0.0794863965    0.6501745592
26   
torsion grid (120,)
C        5.3120863226    1.5674519135    1.8206380042
C        5.5467517295    1.4620732571    0.4672398124
C        3.8761032483    0.1394585525    1.0723469574
C        1.3598658433   -1.0736164323   -1.0765926837
C        3.1315523254   -2.3446942826    1.1521732603
C        2.4601436311   -1.6088286553    2.2812957940
C        2.7875994629   -0.8741173118    0.9950394110
C        0.0725069301   -0.5576776953   -1.7015120964
C        4.5114505213    0.1031365643   -1.3902352017
N        4.2734748728    0.7414397524    2.1874191536
N        4.6327918135    0.5395433321   -0.0046155313
N        1.6692271800   -0.5297840660    0.1436439844
O        2.0490487005   -1.9222496068   -1.6428243911
H        5.8296200790    2.1843106343    2.5441209694
H        6.2613071788    1.9397733789   -0.1889111789
H        4.1864424145   -2.5800974260    1.2501189507
H        2.5560567677   -3.0478552659    0.5626437959
H        1.4089686200   -1.8144356927    2.4588653295
H        3.0413721307   -1.3308510938    3.1526832076
H       -0.3978495985    0.2570781468   -1.1437252318
H       -0.6349623918   -1.3884004279   -1.7772094836
H        0.2891807140   -0.2191166194   -2.7176940156
H        4.0772749393   -0.8955400404   -1.4328890016
H        5.5031070823    0.0845461667   -1.8480158127
H        3.8696823972    0.7842706468   -1.9591813553
H        1.0472237983    0.1811217486    0.5082680911
26   
torsion grid (135,)
C        5.5064849104    1.3810659418    1.7988218217
C        5.5958203478    1.4229923294    0.4257192984
C        3.9022084068    0.1403313827    1.0550807517
C        1.4183160698   -1.1456738475   -1.1050200041
C        3.0680927593   -2.3001637715    1.2633653728
C        2.3745341621   -1.4761755969    2.3139675337
C        2.7743460450   -0.8319909322    0.9983421859
C        0.1421429309   -0.6799707446   -1.7896011893
C        4.3183915773    0.3255604989   -1.4515737885
N        4.4541151547    0.5799702802    2.1802658419
N        4.5751645687    0.6174648087   -0.0461280123
N        1.7013791089   -0.5174422406    0.0814318371
O        2.1267558815   -2.0213379231   -1.6001802275
H        6.1341248496    1.8787771750    2.5268472864
H        6.2695651532    1.9356896284   -0.2467726693
H        4.1117144642   -2.5521568693    1.4199255199
H        2.4979619102   -3.0242196716    0.6940475992
H        1.3107608175   -1.6389809135    2.4587547155
H        2.9321989720   -1.1601344403    3.1877136488
H       -0.3420674041    0.1693226578   -1.2991329262
H       -0.5612877211   -1.5170334329   -1.8210311194
H        0.3775831009   -0.4121850515   -2.8225663182
H        4.0323374010   -0.7192625652   -1.5759701690
H        5.2300972301    0.5161380040   -2.0208322149
H        3.5169277407    0.9594474968   -1.8446982844
H        1.0545968614    0.1963790547    0.3934601212
26   
torsion grid (150,)
C        5.6942057104    1.1074999084    1.7738697615
C        5.6481990226    1.3315348913    0.4177218115
C        3.9308609926    0.0836355427    1.0556122467
C        1.4908293976   -1.2197059087   -1.1144980231
C        2.9736134071   -2.2871808902    1.3954004158
C        2.2839070878   -1.3697158579    2.3662352823
C        2.7503484512   -0.8277084545    1.0246700010
C        0.2239689045   -0.8202430552   -1.8554206423
C        4.1473168190    0.5615985598   -1.4481636965
N        4.6274972156    0.3288174312    2.1596994119
N        4.5233907542    0.6657889805   -0.0418254259
N        1.7152823670   -0.5434461622    0.0588378647
O        2.2493361629   -2.0799506864   -1.5572740206
H        6.4258656648    1.4627029885    2.4881101969
H        6.2860469542    1.8911443375   -0.2520983299
H        4.0009062274   -2.5660810351    1.6029890684
H        2.3911726049   -3.0228398314    0.8535006734
H        1.2100895522   -1.4778287253    2.4885014388
H        2.8340481672   -1.0232203042    3.2333044034
H       -0.3112116842    0.0191556488   -1.4022306225
H       -0.4441644792   -1.6854316869   -1.8935755946
H        0.4866221449   -0.5650489963   -2.8851037984
H        3.9643579048   -0.4791515121   -1.7183791967
H        4.9706016060    0.9455616011   -2.0526996317
H        3.2510598070    1.1512188786   -1.6613356079
H        1.0274146421    0.1458977290    0.3356164006
26   
torsion grid (165,)
C        5.8560222594    0.8836805811    1.6550961905
C        5.6804774354    1.2841111886    0.3524769284
C        3.9640650158    0.0498110381    1.0202072644
C        1.5969954274   -1.2777751223   -1.1216335015
C        2.8605381328   -2.2029835995    1.5755701587
C        2.2004179843   -1.1586705457    2.4304065442
C        2.7231397624   -0.7800782456    1.0514875590
C        0.3596659543   -0.9648409080   -1.9484810323
C        3.9597810881    0.8509907119   -1.4201005029
N        4.7884149148    0.1161561388    2.0594000259
N        4.4684592069    0.7444210522   -0.0554834633
N        1.7192776814   -0.5583064478    0.0416396794
O        2.4269632939   -2.1053107634   -1.4889976666
H        6.6807410637    1.1051397199    2.3202216410
H        6.2793499838    1.8898833611   -0.3128634686
H        3.8672951571   -2.5076609717    1.8375854494
H        2.2485569759   -2.9570147426    1.0939827275
H        1.1202471260   -1.1982724536    2.5414100845
H        2.7569730249   -0.7586685612    3.2702484341
H       -0.2650587900   -0.1696371637   -1.5315523092
H       -0.2391316255   -1.8756641313   -2.0368485940
H        0.6739569631   -0.6823252657   -2.9566292846
H        3.8451376024   -0.1386114509   -1.8651559790
H        4.6816287370    1.4207211061   -2.0072606239
H        3.0018713802    1.3756960102   -1.4441298845
H        0.9884033224    0.1055411032    0.2635830153
26   
torsion grid (180,)
C        6.0119044247    0.6119015898    1.4885794261
C        5.7271261846    1.2043023909    0.2826658176
C        4.0202288686   -0.0403782744    0.9557704243
C        1.7423881625   -1.3318784649   -1.1602519124
C        2.7514373180   -2.1240444727    1.7314166785
C        2.1432969980   -0.9534064151    2.4511899156
C        2.7176447016   -0.7644544208    1.0517248738
C        0.5515998887   -1.0910205310   -2.0749222170
C        3.8044146537    1.1354615741   -1.3212930792
N        4.9483140378   -0.1591670328    1.8972237581
N        4.4461685958    0.7872516555   -0.0575122863
N        1.7473269258   -0.5987578175    0.0013984725
O        2.6398298171   -2.1158066653   -1.4539233830
H        6.9139370620    0.6950587616    2.0810028600
H        6.2930455186    1.8640016054   -0.3597193906
H        3.7299287279   -2.4607382569    2.0526769194
H        2.0955820679   -2.8807955709    1.3154977314
H        1.0611884621   -0.9127694630    2.5472893756
H        2.7123610206   -0.5029219725    3.2568732103
H       -0.1432429210   -0.3298091093   -1.7083570725
H        0.0111863511   -2.0337155421   -2.1979299783
H        0.9192282402   -0.7950003074   -3.0609534179
H        3.6859230230    0.2514649101   -1.9509318213
H        4.4438115717    1.8520441848   -1.8393197219
H        2.8310571888    1.6004112081   -1.1544117592
H        0.9774371672    0.0345838951    0.1718196493
