11   
torsion grid (-165,)
C       -0.5277457809   -1.3395237144    0.7337242133
C       -1.2153382857   -0.9636609575   -0.3597113647
C       -2.0884534310    0.2120933485   -0.4633654017
C       -2.0740753471    1.3491565958    0.6007387567
O       -2.8869919388    0.3429745115   -1.3907472376
O       -1.3496219890    1.3825654575    1.5701791284
O       -2.9697802926    2.3037247776    0.3149316622
H        0.0393061865   -2.2671663348    0.7242682807
H       -0.5120641608   -0.7408986355    1.6371272352
H       -1.2328791957   -1.5895704591   -1.2496933211
H       -3.4155123272    2.0289143891   -0.5182603593
11   
torsion grid (-150,)
C       -0.5843317138   -1.3648430832    0.7500351522
C       -1.1510455465   -0.9212759603   -0.3853520734
C       -2.0759920131    0.2176126375   -0.4699553559
C       -2.0190444274    1.3843095415    0.5583305421
O       -2.9584869702    0.2779958720   -1.3240881716
O       -1.2102579329    1.4722011936    1.4543961952
O       -2.9789393724    2.2921078673    0.3324957084
H       -0.0136978704   -2.2901405439    0.7500273352
H       -0.6674109878   -0.8219197874    1.6847916947
H       -1.0874243859   -1.5025168631   -1.3031331921
H       -3.4865253417    1.9750781045   -0.4483562425
11   
torsion grid (-135,)
C       -0.6389496018   -1.3923051231    0.7578317309
C       -1.0900939135   -0.8791576633   -0.3978731081
C       -2.0680225581    0.2199967827   -0.4701466527
C       -1.9715539125    1.4217629230    0.5118598949
O       -3.0269651508    0.1995208654   -1.2369184115
O       -1.0961658225    1.5574010543    1.3356726702
O       -2.9783818788    2.2908125818    0.3407225364
H       -0.0575244929   -2.3105794723    0.7629885323
H       -0.8252100727   -0.9114972493    1.7124411066
H       -0.9386656817   -1.4076588290   -1.3371082744
H       -3.5416234769    1.9303131082   -0.3802784325
11   
torsion grid (-120,)
C       -0.6903971208   -1.4374247836    0.7590916634
C       -1.0393966773   -0.8421121763   -0.3893941734
C       -2.0696786772    0.2174209826   -0.4509366177
C       -1.9331669419    1.4698220727    0.4583972619
O       -3.0925152531    0.1101625230   -1.1178588763
O       -0.9997360756    1.6589126045    1.2030842169
O       -2.9731302879    2.3076823643    0.3276043469
H       -0.0779994346   -2.3350062739    0.7556387525
H       -0.9901913421   -1.0428390111    1.7255547596
H       -0.7812207990   -1.2872271741   -1.3485858773
H       -3.5857239528    1.8992178503   -0.3234038641
11   
torsion grid (-105,)
C       -0.7414205276   -1.5232596115    0.7561554819
C       -1.0130518200   -0.8172860835   -0.3452578861
C       -2.0937593744    0.2042595229   -0.3899691822
C       -1.8995760441    1.5384323461    0.3815305792
O       -3.1656633601    0.0204670483   -0.9494565129
O       -0.9018562860    1.8020882470    1.0098727921
O       -2.9626081733    2.3516443516    0.2750653869
H       -0.0476004183   -2.3586414963    0.7270235470
H       -1.1886255173   -1.2845788296    1.7177930339
H       -0.5912724698   -1.0959171050   -1.3095934643
H       -3.6277225713    1.8814005884   -0.2739721834
11   
torsion grid (-90,)
C       -0.8051812323   -1.6470466815    0.7461252005
C       -1.0202356886   -0.8055285180   -0.2664974910
C       -2.1431462659    0.1758100485   -0.2845039725
C       -1.8590739204    1.6049321557    0.2535592968
O       -3.2544250617   -0.0544332570   -0.7362771071
O       -0.7771717808    1.9504019469    0.6655651409
O       -2.9373758172    2.4028187431    0.1950312772
H        0.0275189453   -2.3441859489    0.7256026778
H       -1.4483146370   -1.6696258154    1.6225690334
H       -0.3505963993   -0.7671963458   -1.1247902962
H       -3.6651547040    1.8726626508   -0.1971921676
11   
torsion grid (-75,)
C       -0.8545237919   -1.7255534051    0.7134306365
C       -1.0024131251   -0.7756775186   -0.2153987926
C       -2.1503348886    0.1663975520   -0.2098052637
C       -1.8326896299    1.6443403649    0.1435818526
O       -3.2949291449   -0.1098677273   -0.5400669231
O       -0.7148088260    2.0384079414    0.3808075127
O       -2.9255281702    2.4231046533    0.1406925105
H        0.0374513879   -2.3447497214    0.7441584776
H       -1.6191494863   -1.9168644044    1.4625140788
H       -0.1944077200   -0.5326764204   -0.9033677139
H       -3.6818231672    1.8517476639   -0.1173547832
11   
torsion grid (-60,)
C       -0.8900667350   -1.7822205314    0.6741372153
C       -0.9642480531   -0.7369248092   -0.1601306011
C       -2.1284699496    0.1749050369   -0.1458082102
C       -1.8234808115    1.6815819031    0.0604189851
O       -3.2898002624   -0.1510799195   -0.3588494322
O       -0.7009609797    2.1176897444    0.1727778642
O       -2.9334881327    2.4342357588    0.0872178341
H        0.0096472591   -2.3876764366    0.7388548742
H       -1.7276514404   -2.0608413605    1.3091390425
H       -0.0934306406   -0.3977812419   -0.7163223196
H       -3.6912068164    1.8267208345   -0.0622436601
11   
torsion grid (-45,)
C       -0.9160210229   -1.8290133747    0.6329143297
C       -0.9245021797   -0.6980882643   -0.0881669025
C       -2.1020689944    0.1898421067   -0.0804500066
C       -1.8232118644    1.7127041934   -0.0120283723
O       -3.2684774247   -0.1755798254   -0.1828436832
O       -0.7072854384    2.1803884681   -0.0020555991
O       -2.9479409641    2.4418386084    0.0254225798
H       -0.0227098759   -2.4423772173    0.7113623926
H       -1.8058833127   -2.1653254546    1.1596781427
H       -0.0181972531   -0.3032294471   -0.5389949363
H       -3.6968582319    1.8074491853   -0.0256463526
11   
torsion grid (-30,)
C       -1.0082999409   -1.9681334858    0.1280145115
C       -0.9036522521   -0.6734735874   -0.2105469193
C       -2.0857998205    0.2049262115   -0.1841406152
C       -1.8296090251    1.7109780067    0.0710618580
O       -3.2428876758   -0.1530311670   -0.3850746657
O       -0.7223392246    2.1790386254    0.2119092481
O       -2.9619195364    2.4275159244    0.1111375569
H       -0.1348528292   -2.6122326739    0.1789758314
H       -1.9755947437   -2.4065068179    0.3618983821
H        0.0576188337   -0.1969564979   -0.3775342659
H       -3.6985511808    1.7984337763   -0.0556257318
11   
torsion grid (-15,)
C       -1.0132714048   -1.9881452582    0.0759736242
C       -0.8924406162   -0.6632732929   -0.1059377619
C       -2.0803838143    0.2070099075   -0.1030782668
C       -1.8281291775    1.7303911003    0.0137211128
O       -3.2440217317   -0.1733498916   -0.2039351381
O       -0.7210180986    2.2153309273    0.0815138144
O       -2.9639361968    2.4420160347    0.0276341607
H       -0.1420816704   -2.6363518935    0.1104792777
H       -1.9928489890   -2.4452225934    0.1949643380
H        0.0727425138   -0.1738137695   -0.1889332803
H       -3.7004982099    1.7959670437   -0.0523266906
11   
torsion grid (0,)
C       -1.0140755792   -1.9956824769    0.0234152907
C       -0.8893910902   -0.6587629557    0.0021990530
C       -2.0793208367    0.2085480552   -0.0196014396
C       -1.8276980320    1.7362906839   -0.0426924447
O       -3.2455472738   -0.1778270503   -0.0206172467
O       -0.7201733016    2.2251366102   -0.0486745352
O       -2.9641722272    2.4467528657   -0.0576612893
H       -0.1436003176   -2.6455379850    0.0403455909
H       -1.9971311671   -2.4607407768    0.0245394903
H        0.0764623622   -0.1639709031    0.0002056473
H       -3.7012399319    1.7963522472   -0.0513829267
11   
torsion grid (15,)
C       -1.0127306004   -1.9898928712   -0.0295520732
C       -0.8935447347   -0.6597024926    0.1096086223
C       -2.0812495617    0.2098060694    0.0657671398
C       -1.8275522892    1.7285260867   -0.0988275866
O       -3.2459233730   -0.1672022666    0.1672483317
O       -0.7197238111    2.2111428630   -0.1713149495
O       -2.9630363209    2.4391084270   -0.1479169913
H       -0.1413436244   -2.6387394734   -0.0336508326
H       -1.9911161250   -2.4508265616   -0.1433609016
H        0.0708208561   -0.1675984562    0.1862236944
H       -3.7004878107    1.7959369900   -0.0541492633
11   
torsion grid (30,)
C       -1.0072242093   -1.9716152341   -0.0821745412
C       -0.9058273404   -0.6664353676    0.2143779861
C       -2.0874934730    0.2104080965    0.1467981066
C       -1.8284490990    1.7072253240   -0.1555064690
O       -3.2466379001   -0.1408943616    0.3476240197
O       -0.7197170070    2.1705535907   -0.3004379177
O       -2.9601690385    2.4218504499   -0.2308759836
H       -0.1334105124   -2.6169007843   -0.1028346643
H       -1.9721490035   -2.4176576620   -0.3112997525
H        0.0537652407   -0.1844867406    0.3753219734
H       -3.6985750527    1.7985110035   -0.0509175673
11   
torsion grid (45,)
C       -0.9112877626   -1.8495658156   -0.5907783060
C       -0.9263279774   -0.6953877504    0.0923528487
C       -2.1032544191    0.1920818955    0.0435042107
C       -1.8228480282    1.7117765055   -0.0724819850
O       -3.2708343873   -0.1694684607    0.1462911626
O       -0.7066113732    2.1786074658   -0.0867906943
O       -2.9467296683    2.4395478794   -0.1452346796
H       -0.0175714380   -2.4653804739   -0.6399467862
H       -1.7960354872   -2.2029363121   -1.1149846022
H       -0.0243414737   -0.2860331189    0.5388917504
H       -3.6964806915    1.8073766019   -0.0806748350
11   
torsion grid (60,)
C       -0.8848982329   -1.8041626064   -0.6332673216
C       -0.9668011980   -0.7318102145    0.1651691850
C       -2.1303054716    0.1793220464    0.1090670656
C       -1.8224153930    1.6782745473   -0.1438514313
O       -3.2938860012   -0.1391563323    0.3211818079
O       -0.6985849513    2.1101596770   -0.2593747523
O       -2.9316719648    2.4298941806   -0.2066157349
H        0.0150750498   -2.4116384015   -0.6689281219
H       -1.7162682896   -2.1034522588   -1.2670294865
H       -0.1013788771   -0.3746512473    0.7184973892
H       -3.6911873767    1.8278390260   -0.0447005152
11   
torsion grid (75,)
C       -0.8489338467   -1.7488342677   -0.6740570232
C       -1.0055343383   -0.7687034379    0.2213085334
C       -2.1528093452    0.1729420496    0.1730897803
C       -1.8308174013    1.6383036844   -0.2258246349
O       -3.3007945428   -0.0919696882    0.5008749012
O       -0.7104045298    2.0240389646   -0.4647932482
O       -2.9231877821    2.4169969630   -0.2596124798
H        0.0429520609   -2.3689196334   -0.6753748645
H       -1.6061643233   -1.9646508861   -1.4239927442
H       -0.2042876693   -0.5032584209    0.9088885457
H       -3.6823409886    1.8546730892    0.0096413180
11   
torsion grid (90,)
C       -0.7992242255   -1.6714648277   -0.7088372114
C       -1.0238808993   -0.7968435821    0.2731879074
C       -2.1463580154    0.1848201238    0.2475035162
C       -1.8561270098    1.5952849630   -0.3346949167
O       -3.2622145495   -0.0300816043    0.6955361306
O       -0.7699767312    1.9266737232   -0.7470901564
O       -2.9345062487    2.3949267974   -0.3133659053
H        0.0328343248   -2.3677408268   -0.6569488380
H       -1.4336046984   -1.7228844971   -1.5904277407
H       -0.3628063337   -0.7302856590    1.1363816116
H       -3.6664583199    1.8782138061    0.0889036864
11   
torsion grid (105,)
C       -0.7352959669   -1.5480924188   -0.7223217585
C       -1.0174894300   -0.8059894911    0.3523613450
C       -2.0980089673    0.2167327329    0.3524576234
C       -1.8953898468    1.5245953256   -0.4607936745
O       -3.1755395025    0.0518119299    0.9069962424
O       -0.8913084954    1.7670743819   -1.0875295659
O       -2.9589684198    2.3411379764   -0.3919102223
H       -0.0422749284   -2.3822173404   -0.6586394352
H       -1.1727596242   -1.3412619556   -1.6957458259
H       -0.6054995576   -1.0526532227    1.3295499283
H       -3.6297879679    1.8894804982    0.1657234271
11   
torsion grid (120,)
C       -0.6841971719   -1.4624141707   -0.7275874145
C       -1.0442870068   -0.8293349815    0.3970296811
C       -2.0745298196    0.2318990662    0.4131928633
C       -1.9282520184    1.4534866663   -0.5356789362
O       -3.1040224447    0.1470142657    1.0730592208
O       -0.9873391741    1.6176060203   -1.2768635830
O       -2.9689912137    2.2954637102   -0.4430678134
H       -0.0723734378   -2.3595347761   -0.6883230107
H       -0.9741213043   -1.0999593499   -1.7095221503
H       -0.7959350629   -1.2425222687    1.3729541032
H       -3.5882740525    1.9089142347    0.2149551237
11   
torsion grid (135,)
C       -0.6327392529   -1.4172896495   -0.7273077945
C       -1.0950870351   -0.8660675887    0.4062238681
C       -2.0730633894    0.2351088380    0.4323228640
C       -1.9661314275    1.4036937965   -0.5879024899
O       -3.0396111453    0.2402484818    1.1897449175
O       -1.0825002987    1.5117852825   -1.4069762454
O       -2.9741216250    2.2781701287   -0.4556725760
H       -0.0518128456   -2.3353696697   -0.6962727359
H       -0.8092044565   -0.9682940631   -1.6991160538
H       -0.9533263104   -1.3632307548    1.3638978211
H       -3.5447249203    1.9418636149    0.2712065088
11   
torsion grid (150,)
C       -0.5781861841   -1.3895975736   -0.7198797046
C       -1.1559348826   -0.9085626688    0.3944955331
C       -2.0810321351    0.2327214523    0.4321307706
C       -2.0131778054    1.3647341547   -0.6335798029
O       -2.9719606985    0.3215488994    1.2749487740
O       -1.1954520060    1.4227297893   -1.5239476811
O       -2.9747601097    2.2797372678   -0.4474987494
H       -0.0081058019   -2.3145231692   -0.6835577606
H       -0.6516378512   -0.8778886316   -1.6728730682
H       -1.1017927630   -1.4591256072    1.3315973617
H       -3.4902824692    1.9888445033    0.3383124114
11   
torsion grid (165,)
C       -0.5217512744   -1.3637657060   -0.7038516302
C       -1.2199929309   -0.9517577692    0.3696312734
C       -2.0934303028    0.2269900846    0.4256032235
C       -2.0678033129    1.3282099901   -0.6753485619
O       -2.9010965415    0.3886811503    1.3401313948
O       -1.3337060650    1.3293443877   -1.6380859625
O       -2.9657699958    2.2919269111   -0.4302384259
H        0.0446518016   -2.2907217496   -0.6580457863
H       -0.4967277607   -0.7953710085   -1.6263678207
H       -1.2467572538   -1.5478658179    1.2796186747
H       -3.4199390703    2.0449479438    0.4071017050
11   
torsion grid (180,)
C       -0.4689782828   -1.3347952035   -0.6787261061
C       -1.2827681148   -0.9928186998    0.3368352536
C       -2.1046881405    0.2205275432    0.4184897333
C       -2.1256867656    1.2914816406   -0.7126241224
O       -2.8211624541    0.4469317850    1.3938322799
O       -1.4859722215    1.2322870608   -1.7389698034
O       -2.9511767716    2.3041036282   -0.4164834904
H        0.0953799560   -2.2629187793   -0.6300449214
H       -0.3530629434   -0.7103637058   -1.5569331547
H       -1.3852283774   -1.6341741804    1.2099442348
H       -3.3389785911    2.1003573274    0.4648281807
