19   
torsion grid (-165,)
C        2.7738852851   -4.2043068974   -1.2401412191
C        4.2865843015   -2.9280000884   -0.1973962444
C        4.0097459263   -4.2374302105   -0.5340763653
C        1.5031395730    1.2058503189    0.8450047704
C        1.8418938780   -0.2711957322    0.6547892384
N        2.3087822321   -2.9639189388   -1.3460424539
N        3.2230995755   -2.1989774052   -0.7019828920
O        4.3731276413   -0.0013750617   -0.2310107609
O        2.4698379618   -0.0457220329   -1.9289501386
O        4.7120921196   -5.3845860029   -0.2880692249
S        3.0598824161   -0.4724733327   -0.6697686683
H        2.2283434330   -5.0359256328   -1.6685661213
H        5.1155719414   -2.4478665822    0.3024518064
H        2.3882434873    1.7825656936    1.1249608196
H        1.0776255530    1.6309149669   -0.0669107329
H        0.7646217148    1.3003201300    1.6462916872
H        0.9797975515   -0.8654737259    0.3426834035
H        2.2924424516   -0.7195538138    1.5434564946
H        5.5483925810   -5.1625691379    0.1496054091
19   
torsion grid (-150,)
C        2.8619741874   -4.2177548779   -1.3792706181
C        4.1639426409   -2.9190508816   -0.1082168931
C        3.9917289081   -4.2266672911   -0.5124262121
C        1.5513445053    1.2215006397    0.9023427246
C        1.8638638182   -0.2602559829    0.7034366317
N        2.3624908879   -2.9946375331   -1.5148533180
N        3.1410951792   -2.2156482601   -0.7244790989
O        4.2948898754    0.0214954111   -0.4092906162
O        2.2526485106   -0.1118435879   -1.9340947359
O        4.7024619781   -5.3530812895   -0.2039138079
S        2.9599905283   -0.4874776128   -0.7206668798
H        2.4166339717   -5.0549111194   -1.9023887606
H        4.9092045610   -2.4247209531    0.4984531238
H        2.4613840225    1.7953106939    1.0941997695
H        1.0491457170    1.6374403622    0.0258420040
H        0.8871225296    1.3322281399    1.7642890399
H        0.9736496342   -0.8521578228    0.4775279064
H        2.3857389710   -0.6986410532    1.5574825588
H        5.4722457319   -5.1112807428    0.3338918914
19   
torsion grid (-135,)
C        3.1265793561   -3.9498960790   -1.9924024603
C        3.0311737481   -3.3383507895    0.1526874642
C        3.0659606779   -4.4509765835   -0.6599405881
C        1.4271445237    1.2183222902    0.7973711483
C        1.5211633541   -0.2203630169    0.2926287745
N        3.1316651249   -2.6197111928   -2.0139611346
N        3.0439766986   -2.2588288770   -0.7121389933
O        4.1018146540   -0.5983444930    0.9246604083
O        3.5226743565    0.1699478490   -1.4380613966
O        3.0432660189   -5.7460460585   -0.2194656858
S        3.2150742961   -0.5880095457   -0.2363047926
H        3.1735523004   -4.5028133755   -2.9244122564
H        3.0378256326   -3.2277215680    1.2267931949
H        2.0844489943    1.3789549586    1.6553040831
H        1.6918847754    1.9289548059    0.0108754807
H        0.3982153235    1.4189312806    1.1094660293
H        0.8990602066   -0.4009084598   -0.5870431464
H        1.2770416298   -0.9513647330    1.0671577557
H        3.1544141356   -6.3382920064   -0.9787482937
19   
torsion grid (-120,)
C        3.2773123043   -3.9686958879   -1.9867024809
C        2.8732543935   -3.3160411545    0.1084485351
C        3.0399580421   -4.4441545474   -0.6640390656
C        1.4653809533    1.2147056444    0.8574221306
C        1.5287254287   -0.2253180418    0.3509220841
N        3.2627935496   -2.6405720305   -2.0379232894
N        2.9743036447   -2.2522802032   -0.7717418101
O        4.1535491348   -0.5607425204    0.7842713559
O        3.3867320013    0.1758251609   -1.5326110500
O        2.9731739943   -5.7299984368   -0.2027040030
S        3.1810983939   -0.5772967023   -0.3058934162
H        3.4601818141   -4.5397153419   -2.8906548673
H        2.7238980363   -3.1902791952    1.1705203580
H        2.1865442067    1.3821424046    1.6609912987
H        1.6638554439    1.9241850883    0.0506568009
H        0.4625792482    1.4100610905    1.2478456689
H        0.8415040144   -0.4124271765   -0.4771545190
H        1.3472184285   -0.9520401007    1.1461472389
H        3.1887686377   -6.3358546638   -0.9280426498
19   
torsion grid (-105,)
C        3.4266556755   -3.9646737654   -1.9771889224
C        2.7222930947   -3.2893480801    0.0288547210
C        3.0184257950   -4.4248677261   -0.6908354142
C        1.4983243567    1.2200065554    0.8802415325
C        1.5455321604   -0.2310737224    0.4029652128
N        3.3894110562   -2.6395101729   -2.0548688455
N        2.9085703999   -2.2351336498   -0.8511818560
O        4.2039317849   -0.5184466401    0.6191527411
O        3.2376598441    0.2011805865   -1.6233289893
O        2.9114651950   -5.7042507110   -0.2204259414
S        3.1446032166   -0.5585221775   -0.3863808996
H        3.7429485722   -4.5458593169   -2.8367863047
H        2.4022511203   -3.1597563225    1.0518176756
H        2.2844926382    1.4203874122    1.6120238485
H        1.6096536796    1.9124443129    0.0426820738
H        0.5303790782    1.4057455657    1.3541936986
H        0.7923544954   -0.4494811544   -0.3569752734
H        1.4480014243   -0.9364878682    1.2309743405
H        3.2139006710   -6.3184175233   -0.9067486382
19   
torsion grid (-90,)
C        3.5641691895   -3.9712507290   -1.9242460707
C        2.5604617447   -3.2764543440   -0.0566815998
C        2.9696474568   -4.4181614580   -0.7076663293
C        1.5075731678    1.2099056632    0.8830059702
C        1.5769097496   -0.2627062904    0.4777371166
N        3.5278328500   -2.6483138190   -2.0249685497
N        2.8630966146   -2.2305962092   -0.9160105835
O        4.2505292832   -0.4880635442    0.4632990297
O        3.0816466916    0.2189867434   -1.6811130876
O        2.7982277385   -5.6919567867   -0.2420830479
S        3.1099649962   -0.5531023445   -0.4474700640
H        4.0091567245   -4.5606773424   -2.7187382516
H        2.0643636446   -3.1450564251    0.8927744703
H        2.3498496169    1.4827496077    1.5233014734
H        1.5056225624    1.8590214816    0.0046948020
H        0.5822374341    1.3793001303    1.4406473163
H        0.7628644761   -0.5522043943   -0.1901264979
H        1.5975074275   -0.9193557719    1.3496923532
H        3.1706315862   -6.3153145710   -0.8843463760
19   
torsion grid (-75,)
C        3.6920191921   -3.9589251810   -1.8623412378
C        2.4150980296   -3.2470513425   -0.1757966489
C        2.9177339870   -4.3944210655   -0.7471573958
C        1.4894763708    1.1813076672    0.9018675340
C        1.6180790222   -0.3015156708    0.5496128494
N        3.6701325920   -2.6373726780   -1.9793400278
N        2.8433681474   -2.2084969592   -0.9904900110
O        4.2863619307   -0.4193598954    0.2773692987
O        2.8942268558    0.2584835462   -1.7349088354
O        2.6732578198   -5.6638288695   -0.3028637232
S        3.0670555190   -0.5257121903   -0.5195691837
H        4.2524353848   -4.5556094599   -2.5739998546
H        1.7627282105   -3.1123097910    0.6730581185
H        2.3729207484    1.5376848910    1.4370330465
H        1.3509757137    1.7871544696    0.0040536879
H        0.6184489354    1.3146215992    1.5494464049
H        0.7580055762   -0.6680203938   -0.0153520818
H        1.7789413218   -0.9143458713    1.4385406565
H        3.1200947921   -6.2945446300   -0.8879500305
19   
torsion grid (-60,)
C        3.9630080743   -3.9399083618   -1.7032285198
C        2.2941208165   -3.1994409990   -0.4183917181
C        2.7712801880   -4.3377036086   -1.0287502642
C        1.5358203933    1.1833774645    0.8889922397
C        1.7646592152   -0.3042914328    0.6167994530
N        4.2115060623   -2.6490501215   -1.5235816198
N        3.2312090522   -2.2125361318   -0.6898812812
O        4.2004776653    0.1576713716   -0.3729520383
O        2.2721173794   -0.1519103463   -2.0085690516
O        2.1887554742   -5.5718355389   -0.9514885552
S        2.9440106677   -0.4743429211   -0.7526632148
H        4.6375533871   -4.5430620597   -2.3013688245
H        1.4341329438   -3.0509214880    0.2159949819
H        2.4662575541    1.6772939257    1.1764804122
H        1.1241104530    1.6864000600    0.0107567757
H        0.8202583802    1.2846848855    1.7097110623
H        0.8439016952   -0.8036156087    0.3095674407
H        2.2087242779   -0.8157005716    1.4738886253
H        2.7368302224   -6.2104694363   -1.4326829612
19   
torsion grid (-45,)
C        4.0156694989   -4.0570599094   -1.4688178535
C        2.1824953448   -3.2332804052   -0.4992486941
C        2.7195529199   -4.4036838416   -0.9851962704
C        1.6564438832    1.2176111501    0.8856682607
C        1.8835203756   -0.2820138818    0.6917672847
N        4.2684813873   -2.7660121125   -1.2957446257
N        3.1767456521   -2.2776793705   -0.6495247084
O        4.2257320180    0.0737313668   -0.5394997861
O        2.1435021336   -0.2622619826   -1.9730453537
O        2.0982935666   -5.6210257304   -0.9644063212
S        2.9261815551   -0.5402096297   -0.7711494385
H        4.7615879639   -4.6965909950   -1.9284765091
H        1.2265627489   -3.0336439896   -0.0398410431
H        2.6021243957    1.7405978237    1.0432537839
H        1.1494066424    1.6547038903    0.0220766964
H        1.0263223833    1.3681262149    1.7667214294
H        0.9447970670   -0.8107548496    0.5157555464
H        2.4188956275   -0.7346876153    1.5290800991
H        2.6873050035   -6.2826626543   -1.3581841763
19   
torsion grid (-30,)
C        4.0517192255   -4.0797096889   -1.3220901259
C        2.1005028762   -3.2219601405   -0.6634330201
C        2.6948349994   -4.4079073372   -1.0307421560
C        1.6784488761    1.2323812110    0.8962269495
C        1.9701679950   -0.2594507128    0.7374839464
N        4.2870174013   -2.7844061113   -1.1506086473
N        3.1128011479   -2.2754991234   -0.6950286303
O        4.1907625062    0.0666385559   -0.7052580809
O        1.9797397047   -0.2797065210   -1.9382363890
O        2.0668505129   -5.6214974866   -1.0751631062
S        2.8725213666   -0.5394703533   -0.8111689255
H        4.8532526013   -4.7345060342   -1.6469348756
H        1.0827524070   -2.9948853097   -0.3839411704
H        2.6039474641    1.8114564568    0.9340441332
H        1.0619759254    1.6036128942    0.0740529478
H        1.1353247923    1.3896212027    1.8323736677
H        1.0527301835   -0.8494519915    0.6850076649
H        2.6139106115   -0.6486341243    1.5290344947
H        2.6953007971   -6.2902536855   -1.3874587941
19   
torsion grid (-15,)
C        4.0517904421   -4.0876004038   -1.1670188771
C        2.0235164557   -3.2235650080   -0.8226736138
C        2.6689473116   -4.4169167432   -1.0591865583
C        1.6524278991    1.2135376445    0.9388949948
C        1.9983385268   -0.2652959566    0.7727340597
N        4.2562786190   -2.7837027501   -1.0122391362
N        3.0268831634   -2.2714387466   -0.7570369544
O        4.0937000760    0.0763013582   -0.8417501876
O        1.7888920706   -0.3008600678   -1.8918060313
O        2.0573651490   -5.6366171644   -1.1522597066
S        2.7765837291   -0.5398006815   -0.8421526851
H        4.8936863864   -4.7457317297   -1.3534020018
H        0.9755572069   -2.9849725082   -0.7184473519
H        2.5495420406    1.8350705876    0.8881696602
H        0.9499491945    1.5431073540    0.1696449162
H        1.1868072790    1.3619356882    1.9173616234
H        1.1115102938   -0.9022816893    0.8065849544
H        2.7254987392   -0.6137997062    1.5093441811
H        2.7214972122   -6.3049948745   -1.3800293577
19   
torsion grid (0,)
C        4.0919626920   -4.0643397209   -1.0318524757
C        2.0305071672   -3.2074965367   -1.0011196889
C        2.7094798623   -4.4016371852   -1.1108174738
C        1.7507671545    1.2142212515    1.0022484451
C        2.0878415653   -0.2609757645    0.7930390655
N        4.2673238650   -2.7540813836   -0.8848251015
N        3.0125402649   -2.2475159943   -0.8329290628
O        4.0553641505    0.1099076302   -0.9669722063
O        1.6821256205   -0.3022486606   -1.8487640957
O        2.1224582905   -5.6280336190   -1.2616398106
S        2.7489538364   -0.5211668438   -0.8750339419
H        4.9546922266   -4.7198714744   -1.0827230059
H        0.9795312855   -2.9665804833   -1.0591554532
H        2.6402354473    1.8395950687    0.8953047312
H        0.9938485718    1.5508824331    0.2896889199
H        1.3557338953    1.3489814512    2.0132592181
H        1.2092754131   -0.9047947624    0.8792121770
H        2.8665829717   -0.6158489449    1.4719659710
H        2.8150657763   -6.2957116404   -1.3804218061
19   
torsion grid (15,)
C        3.3589157430   -4.3813968554    0.4914919511
C        3.8904485810   -2.8073153516   -1.0042596571
C        3.8681965734   -4.1744808241   -0.8222880129
C        1.4547465075    1.3556934133    0.2192527079
C        1.7214090696   -0.1257406546   -0.0397734989
N        3.0842592342   -3.2301908253    1.0937860535
N        3.3831187105   -2.2807668285    0.1732801678
O        3.3359425781   -0.4943155825    2.0425981626
O        4.3860981187    0.0191695080   -0.2430291744
O        4.2361750868   -5.1889036365   -1.6616284016
S        3.3544038035   -0.5935617735    0.5924013038
H        3.1970250934   -5.3221006044    1.0030418034
H        4.2383032365   -2.1745759062   -1.8083204838
H        1.4715088042    1.5762260685    1.2891517444
H        2.1942959543    1.9841680449   -0.2830820049
H        0.4649605033    1.6126566386   -0.1690092103
H        1.7291126409   -0.3702475035   -1.1047287185
H        1.0141052055   -0.7777356046    0.4782125241
H        4.6369160726   -4.8159326642   -2.4619896711
19   
torsion grid (30,)
C        3.2122032769   -4.3307269786    0.4369656106
C        4.0262508206   -2.8099821031   -0.9871858021
C        3.8870393039   -4.1709527255   -0.8065619352
C        1.4188028017    1.3434627097    0.2770441617
C        1.7063033833   -0.1319529199    0.0066356229
N        2.9512017521   -3.1565804548    1.0018027244
N        3.4337271129   -2.2407251743    0.1275493876
O        3.5000886286   -0.4047571392    1.9533058954
O        4.3503896479    0.0505948342   -0.4217990849
O        4.2808544342   -5.2157973484   -1.5957140248
S        3.3959756530   -0.5490242245    0.5099192880
H        2.9232569461   -5.2532259202    0.9250765321
H        4.4979822733   -2.2057523128   -1.7487720083
H        1.5151098631    1.5735136861    1.3406386920
H        2.0964041606    1.9888953913   -0.2875012114
H        0.3939838161    1.5684202549   -0.0321780808
H        1.6398301688   -0.3864963026   -1.0538327295
H        1.0621939306   -0.7998378656    0.5835166830
H        4.7872123860   -4.8767192822   -2.3499583311
19   
torsion grid (45,)
C        3.0740971849   -4.2655472478    0.3736085038
C        4.1532655594   -2.8087963546   -0.9382025929
C        3.9161551209   -4.1581147276   -0.7690944741
C        1.4056863190    1.3511075688    0.3942088487
C        1.6950617490   -0.1188490317    0.0969913722
N        2.8057957928   -3.0709286782    0.8914150617
N        3.4561637980   -2.1955068652    0.0876395885
O        3.6784606348   -0.3163848836    1.8679702757
O        4.2946228420    0.0877490647   -0.5786050982
O        4.3499195057   -5.2329743190   -1.4946098343
S        3.4303908887   -0.4992064817    0.4455509129
H        2.6680451068   -5.1645166582    0.8204439732
H        4.7387543482   -2.2370846309   -1.6438321667
H        1.5908052817    1.5824842717    1.4456432360
H        2.0181299715    2.0099150456   -0.2265615501
H        0.3535076492    1.5558436970    0.1765487314
H        1.5431692466   -0.3759100913   -0.9539075724
H        1.1189720470   -0.8000420221    0.7272718740
H        4.9535770808   -4.9295304587   -2.1901473108
19   
torsion grid (60,)
C        2.9379389096   -4.1938794340    0.2538095091
C        4.2364550850   -2.7908382338   -0.9098761390
C        3.9400099745   -4.1306226380   -0.7543236141
C        1.3487600646    1.3735432009    0.4570564426
C        1.6280164781   -0.0962242293    0.1489892722
N        2.6303170313   -2.9814936866    0.7060493701
N        3.4177088129   -2.1401479544   -0.0067570268
O        3.7988197689   -0.2151480708    1.7096220018
O        4.1516895797    0.1437277479   -0.7841244351
O        4.4401661281   -5.2297564876   -1.3959362500
S        3.3963415737   -0.4369257213    0.3268103044
H        2.4421256974   -5.0725104263    0.6472090236
H        4.9167905121   -2.2469771914   -1.5495053235
H        1.6336338900    1.6213048071    1.4820917505
H        1.8853761101    2.0334831063   -0.2292353396
H        0.2769906037    1.5593728539    0.3427977851
H        1.3804122280   -0.3687395390   -0.8793719462
H        1.1287835164   -0.7797299306    0.8384166464
H        5.1477002161   -4.9559257439   -1.9997899329
19   
torsion grid (75,)
C        2.8522705908   -4.2655703993    0.1290907433
C        4.3374047928   -2.9149142557   -0.8588115965
C        3.9805874417   -4.2440953932   -0.7354914831
C        1.3726545536    1.2848133803    0.4499476241
C        1.6270051093   -0.1969443535    0.1768136163
N        2.5256520338   -3.0379066179    0.5268801902
N        3.4319899405   -2.2303728700   -0.0741410134
O        3.9460587981   -0.2347231560    1.5299694820
O        4.0567928496    0.0429362377   -0.9863084262
O        4.5265392951   -5.3637582758   -1.2995578132
S        3.4085701341   -0.5123713206    0.2026161278
H        2.2780770049   -5.1230308952    0.4569257411
H        5.1049277534   -2.4008068317   -1.4197665445
H        1.7497361321    1.5746932379    1.4332803123
H        1.8396116531    1.9169783721   -0.3094346701
H        0.2939012658    1.4636879567    0.4281226520
H        1.2877822285   -0.5108706058   -0.8125191476
H        1.1969817851   -0.8534162062    0.9344086622
H        5.3101157778   -5.1156153180   -1.8139925227
19   
torsion grid (90,)
C        2.7556907280   -4.2575280964   -0.0305889564
C        4.3949172114   -2.9434455964   -0.7960598842
C        3.9937687751   -4.2644610481   -0.7272305135
C        1.3913312388    1.2881245003    0.4953015137
C        1.6137229201   -0.2064016076    0.2636094583
N        2.4043387033   -3.0209891717    0.3181249717
N        3.4052747783   -2.2362579873   -0.1473316458
O        4.0710466875   -0.2136944739    1.3617565035
O        3.9056801215    0.0489836907   -1.1464907596
O        4.5896796245   -5.3974078133   -1.2077499434
S        3.3903783763   -0.5094595600    0.1043116870
H        2.1210296602   -5.1002661626    0.2129036715
H        5.2459988836   -2.4517142033   -1.2458926981
H        1.8732831038    1.6217103527    1.4171412117
H        1.7710401928    1.8829757834   -0.3389513653
H        0.3164355947    1.4690448758    0.5841852561
H        1.1654152849   -0.5644435594   -0.6648590574
H        1.2709886045   -0.8254821107    1.0928567707
H        5.4246537297   -5.1630045025   -1.6414183937
19   
torsion grid (105,)
C        2.7140904140   -4.2220607082   -0.2095113175
C        4.4565124333   -2.9298776938   -0.7475420547
C        4.0380007296   -4.2474337500   -0.7220680829
C        1.3868531931    1.2971832045    0.5194355982
C        1.6096417943   -0.2020922794    0.3172965501
N        2.3275524547   -2.9779898191    0.0702500422
N        3.3911450588   -2.2067556275   -0.2579476696
O        4.1799075787   -0.1542182310    1.1250181242
O        3.7152490768    0.0960432507   -1.3455033546
O        4.6873879472   -5.3905558945   -1.0975359990
S        3.3623419432   -0.4712143619   -0.0441998599
H        2.0446178839   -5.0568474529   -0.0447419596
H        5.3737317740   -2.4546042834   -1.0664203578
H        1.9718541758    1.6763383586    1.3606101786
H        1.6463354448    1.8641538073   -0.3777095055
H        0.3276689897    1.4625014620    0.7357342167
H        1.0570413903   -0.6045216897   -0.5326175772
H        1.3835413216   -0.7918921163    1.2056673400
H        5.5828869552   -5.1691309459   -1.3962338963
19   
torsion grid (120,)
C        2.6693619167   -4.2140753870   -0.3657267638
C        4.4885031008   -2.9492869032   -0.6568188553
C        4.0522086509   -4.2610445848   -0.6840702751
C        1.4070285135    1.2825931379    0.5859819132
C        1.6252704400   -0.2159849381    0.3730533863
N        2.2635379033   -2.9625632927   -0.1547458577
N        3.3734293753   -2.2077674514   -0.3341760596
O        4.2675470085   -0.1269042201    0.8965426619
O        3.5239284112    0.0950362371   -1.5113673420
O        4.7346471710   -5.4164537107   -0.9460316533
S        3.3319804907   -0.4658337145   -0.1750991034
H        1.9735522420   -5.0395121896   -0.2838621602
H        5.4528809523   -2.4909734425   -0.8267789918
H        2.0766625856    1.6782730517    1.3531891668
H        1.5576087464    1.8426916814   -0.3398964176
H        0.3762097643    1.4373688942    0.9167859392
H        0.9866786915   -0.6342320849   -0.4052227199
H        1.5069943749   -0.7983931377    1.2873127054
H        5.6592633719   -5.2058625807   -1.1482755949
19   
torsion grid (135,)
C        2.6339100440   -4.1720706759   -0.5396303024
C        4.4904398365   -2.9270357900   -0.5497217382
C        4.0495308131   -4.2344180280   -0.6363418669
C        1.4150691813    1.2883547982    0.6697707850
C        1.6518134609   -0.2073793683    0.4596622488
N        2.2131202588   -2.9153068787   -0.4049935385
N        3.3451103563   -2.1721400771   -0.4164407158
O        4.3349526861   -0.0930872933    0.6883899752
O        3.3138709829    0.1410502064   -1.6213996039
O        4.7521345358   -5.3990702552   -0.7757185186
S        3.2896342433   -0.4311941923   -0.2778897022
H        1.9259591443   -4.9910878974   -0.5560361030
H        5.4741163893   -2.4786270978   -0.5501321575
H        2.1594311614    1.7204298589    1.3429479843
H        1.4369704608    1.8304265390   -0.2784379245
H        0.4272323642    1.4225784917    1.1194824861
H        0.9391027710   -0.6614623430   -0.2287324202
H        1.6615058283   -0.7715327110    1.3936143580
H        5.7000302211   -5.2000532627   -0.8211880070
19   
torsion grid (150,)
C        2.6193833199   -4.1488226192   -0.7211904901
C        4.4749590376   -2.9289937086   -0.4534589054
C        4.0335012945   -4.2298138740   -0.6043831141
C        1.4452355103    1.2835862818    0.7080318003
C        1.7122167852   -0.2087052112    0.5152535583
N        2.2006954901   -2.8866307286   -0.6551301450
N        3.3316838551   -2.1583800249   -0.4974060038
O        4.4043546001   -0.0688497388    0.4572040513
O        3.1301432747    0.1362387314   -1.7333356021
O        4.7319732386   -5.4050898524   -0.6299180524
S        3.2648661780   -0.4200924725   -0.3911876437
H        1.9111538402   -4.9592448069   -0.8395309983
H        5.4513799782   -2.4901676855   -0.3041786439
H        2.2437116388    1.7619585117    1.2806317902
H        1.3429898581    1.7937718994   -0.2524616683
H        0.5092963459    1.4013499340    1.2615155386
H        0.9460215037   -0.7084678793   -0.0782429782
H        1.8458470805   -0.7412618219    1.4589108200
H        5.6814740613   -5.2166788200   -0.5738549178
19   
torsion grid (165,)
C        2.6494866662   -4.1359811870   -0.8957147483
C        4.4395275488   -2.9092163401   -0.3503067251
C        4.0344690538   -4.2096468723   -0.5800069046
C        1.4239193420    1.2448594372    0.8041211317
C        1.7413637866   -0.2364696102    0.6082565008
N        2.2148456146   -2.8786565361   -0.8729879947
N        3.3044734677   -2.1456961288   -0.5405042491
O        4.4102314200   -0.0262459514    0.2703183564
O        2.9019564891    0.1168377667   -1.7764161993
O        4.7395275026   -5.3801187101   -0.5275837684
S        3.1978068998   -0.4140290912   -0.4517174097
H        1.9735732345   -4.9496918776   -1.1270923878
H        5.3825358487   -2.4610876250   -0.0714134330
H        2.2537593752    1.7709112958    1.2827071968
H        1.2004406196    1.7287264845   -0.1494182180
H        0.5450827644    1.3332516163    1.4492127797
H        0.9423992592   -0.7817931237    0.1029660846
H        1.9956423372   -0.7431137622    1.5418222419
H        5.6672450259   -5.1881387002   -0.3209369665
19   
torsion grid (180,)
C        2.6855496698   -4.1426338918   -1.0527871442
C        4.3730917630   -2.9101700550   -0.2518562102
C        4.0084684131   -4.2118998972   -0.5327296675
C        1.4735033578    1.2553192175    0.8160238195
C        1.8099081689   -0.2240425131    0.6397510381
N        2.2504620191   -2.8870674850   -1.1026111577
N        3.2752239170   -2.1499299804   -0.6107685368
O        4.4297884127   -0.0016486622    0.0249449957
O        2.7111781031    0.0615720122   -1.8567635459
O        4.7005221890   -5.3805146140   -0.3732425195
S        3.1543384739   -0.4204536888   -0.5563500056
H        2.0552717822   -4.9585999516   -1.3838323797
H        5.2713700944   -2.4556247488    0.1407037753
H        2.3321204817    1.8162412612    1.1937848298
H        1.1483352385    1.6987421924   -0.1278080653
H        0.6586240851    1.3486153982    1.5396526312
H        0.9780841922   -0.8028832328    0.2323382284
H        2.1647704748   -0.6913568813    1.5611856721
H        5.5949361403   -5.1839358161   -0.0544802809
