33
-1 1 C14H15O4
C                     0.970992174623    -1.424911972018    -2.274606215204
C                    -0.114094279110    -0.369557911378    -2.373108028505
C                     0.041696698235     0.758150623362    -3.377847728307
C                    -0.985766098539    -0.336811996948    -3.604511795777
C                    -0.802695961899    -0.024927077721    -1.073069537793
O                    -1.653334908117    -1.130027595656    -0.708405817100
C                    -2.858091962237    -0.799491915599    -0.148262135039
O                    -3.052498715179     0.283775581433     0.378578588909
C                    -3.829992988136    -1.919956622879    -0.362779791613
H                    -3.294349438330    -2.866828328728    -0.274159246158
C                    -5.042594872149    -1.925159334461     0.520199502328
C                    -5.506744077785    -3.139060052188     1.053117699539
C                    -6.668641958340    -3.196144429943     1.828607099964
C                    -7.398419332649    -2.030758901145     2.087200863059
C                    -6.952770384553    -0.816289529588     1.550072442000
C                    -5.793463487916    -0.761867511172     0.772589451102
C                    -4.291349879092    -1.858661550307    -1.937375871921
O                    -4.740688933339    -2.942776170093    -2.355953399819
O                    -4.133708189121    -0.742660495134    -2.488423870872
H                     1.781199066179    -1.103143075558    -1.606206957246
H                     0.556456481092    -2.360088067746    -1.882210110811
H                     1.409071295638    -1.636003237904    -3.256724642312
H                    -0.314958914936     1.748378294341    -3.104206996439
H                     0.937599012963     0.761208193410    -3.995659565838
H                    -0.772523012903    -1.071239764709    -4.377375535302
H                    -2.043838098002    -0.131797452893    -3.460776676523
H                    -1.418320366053     0.870652989253    -1.171919888372
H                    -0.075995811279     0.146884686760    -0.267529740521
H                    -4.954359625912    -4.051194904312     0.839634997170
H                    -7.006741411691    -4.151517145427     2.226496338976
H                    -8.303524377745    -2.068826380359     2.690654657044
H                    -7.517832932832     0.096145006174     1.733539937808
H                    -5.457483442211     0.179290477829     0.354020003739
