33
-1 1 C14H15O4
C                     1.324501061969    -1.111297754584    -0.837943794430
C                     0.453476743775     0.051264497376    -1.277385255715
C                     1.124598332727     1.356246667426    -1.653705961885
C                     0.505067944578     0.476371103660    -2.726641358547
C                    -0.881864185265     0.169819036567    -0.569872134111
O                    -1.745794279687    -0.935267077165    -0.876141012020
C                    -1.888737675749    -1.904196704233     0.091099444348
O                    -1.211555356703    -1.912461198114     1.104933170935
C                    -2.977500783949    -2.850777182696    -0.304155153626
H                    -2.957925629909    -2.972569143393    -1.387331769764
C                    -2.920344517470    -4.184121668998     0.380297700454
C                    -2.960017626176    -5.367543197585    -0.373923649825
C                    -2.955174241795    -6.623093305104     0.243985693900
C                    -2.910735479549    -6.717365442003     1.638729172594
C                    -2.882004898292    -5.541505474749     2.401384946139
C                    -2.890319203624    -4.289704169717     1.783643468010
C                    -4.422304082807    -2.130221483298     0.027823460390
O                    -5.282089327935    -2.337536826364    -0.851318467966
O                    -4.448391376271    -1.508183028009     1.111981366872
H                     1.526943460815    -1.063856938271     0.236908160378
H                     0.824422432972    -2.064524402474    -1.033376584941
H                     2.280103985415    -1.108977301932    -1.375444904415
H                     0.621880892775     2.288158422402    -1.405463280747
H                     2.209061876090     1.404249919737    -1.592478766875
H                     1.173967841220    -0.064672091026    -3.391199255632
H                    -0.418335254696     0.809308856663    -3.192542749304
H                    -1.415423650002     1.062238836071    -0.912522008755
H                    -0.740329199641     0.228584991328     0.511908517836
H                    -3.005349856516    -5.299756343038    -1.459013066950
H                    -2.988768855927    -7.525718038403    -0.363979939068
H                    -2.906308822221    -7.691027162192     2.125474620841
H                    -2.861523560029    -5.602867900995     3.488256012973
H                    -2.891554969997    -3.378984919549     2.371067383595
