
  -OEChem-12122420533D

 33 34  0     1  0  0  0  0  0999 V2000
    0.4773   -1.2877   -3.0970 C   0  0  0  0  0  0  0  0  0  0  0  0
    0.6321   -0.9616   -1.6232 C   0  0  0  0  0  0  0  0  0  0  0  0
    1.5493   -1.8219   -0.7856 C   0  0  0  0  0  0  0  0  0  0  0  0
    1.9540   -0.4009   -1.1379 C   0  0  0  0  0  0  0  0  0  0  0  0
   -0.6154   -0.4161   -0.9585 C   0  0  0  0  0  0  0  0  0  0  0  0
   -1.7038   -1.3532   -1.0116 O   0  0  0  0  0  0  0  0  0  0  0  0
   -1.9082   -2.1255    0.1090 C   0  0  0  0  0  0  0  0  0  0  0  0
   -1.1528   -2.0917    1.0663 O   0  0  0  0  0  0  0  0  0  0  0  0
   -3.1657   -2.9190   -0.0485 C   0  0  1  0  0  0  0  0  0  0  0  0
   -3.2742   -3.1961   -1.0971 H   0  0  0  0  0  0  0  0  0  0  0  0
   -3.2479   -4.1315    0.8305 C   0  0  0  0  0  0  0  0  0  0  0  0
   -3.5454   -5.3862    0.2752 C   0  0  0  0  0  0  0  0  0  0  0  0
   -3.6704   -6.5250    1.0787 C   0  0  0  0  0  0  0  0  0  0  0  0
   -3.4987   -6.4276    2.4634 C   0  0  0  0  0  0  0  0  0  0  0  0
   -3.2129   -5.1772    3.0291 C   0  0  0  0  0  0  0  0  0  0  0  0
   -3.0926   -4.0412    2.2266 C   0  0  0  0  0  0  0  0  0  0  0  0
   -4.4428   -1.9249    0.2732 C   0  0  0  0  0  0  0  0  0  0  0  0
   -5.3956   -2.0895   -0.5145 O   0  0  0  0  0  0  0  0  0  0  0  0
   -4.2758   -1.1793    1.2620 O   0  5  0  0  0  0  0  0  0  0  0  0
   -0.3150   -2.0293   -3.2417 H   0  0  0  0  0  0  0  0  0  0  0  0
    0.2096   -0.3922   -3.6725 H   0  0  0  0  0  0  0  0  0  0  0  0
    1.4065   -1.6921   -3.5144 H   0  0  0  0  0  0  0  0  0  0  0  0
    1.2372   -2.0336    0.2314 H   0  0  0  0  0  0  0  0  0  0  0  0
    2.0707   -2.6341   -1.2866 H   0  0  0  0  0  0  0  0  0  0  0  0
    2.7428   -0.2568   -1.8729 H   0  0  0  0  0  0  0  0  0  0  0  0
    1.9397    0.3427   -0.3446 H   0  0  0  0  0  0  0  0  0  0  0  0
   -0.9743    0.4677   -1.4979 H   0  0  0  0  0  0  0  0  0  0  0  0
   -0.4190   -0.1472    0.0813 H   0  0  0  0  0  0  0  0  0  0  0  0
   -3.6892   -5.4658   -0.8005 H   0  0  0  0  0  0  0  0  0  0  0  0
   -3.9035   -7.4860    0.6231 H   0  0  0  0  0  0  0  0  0  0  0  0
   -3.5934   -7.3099    3.0939 H   0  0  0  0  0  0  0  0  0  0  0  0
   -3.0914   -5.0872    4.1073 H   0  0  0  0  0  0  0  0  0  0  0  0
   -2.8952   -3.0692    2.6632 H   0  0  0  0  0  0  0  0  0  0  0  0
  1  2  1  0  0  0  0
  1 20  1  0  0  0  0
  1 21  1  0  0  0  0
  1 22  1  0  0  0  0
  2  3  1  0  0  0  0
  2  4  1  0  0  0  0
  2  5  1  0  0  0  0
  3  4  1  0  0  0  0
  3 23  1  0  0  0  0
  3 24  1  0  0  0  0
  4 25  1  0  0  0  0
  4 26  1  0  0  0  0
  5  6  1  0  0  0  0
  5 27  1  0  0  0  0
  5 28  1  0  0  0  0
  6  7  1  0  0  0  0
  7  8  2  0  0  0  0
  7  9  1  0  0  0  0
  9 10  1  0  0  0  0
  9 11  1  0  0  0  0
  9 17  1  0  0  0  0
 11 12  1  0  0  0  0
 11 16  2  0  0  0  0
 12 13  2  0  0  0  0
 12 29  1  0  0  0  0
 13 14  1  0  0  0  0
 13 30  1  0  0  0  0
 14 15  2  0  0  0  0
 14 31  1  0  0  0  0
 15 16  1  0  0  0  0
 15 32  1  0  0  0  0
 16 33  1  0  0  0  0
 17 18  2  0  0  0  0
 17 19  1  0  0  0  0
M  CHG  1  19  -1
M  END
$$$$
