18   
torsion grid (-165,)
C        0.9015444037    0.1808124532   -0.7181709337
C       -0.5122421431    1.1925308916    1.0747312766
C       -1.5224661237   -0.2402625904   -0.6884193202
C       -0.0984775215   -1.2282574541    1.0822384791
N        1.8200098639   -0.6293884556   -0.9748796989
N       -0.3039099102   -0.0294899676    0.1931353059
O        0.8040998724    1.4147628442   -1.2251580733
H       -1.3539141314    0.9837380075    1.7346948585
H        0.3941933904    1.3594713455    1.6565212143
H       -0.7210361779    2.0549897310    0.4483583745
H       -2.3879462522   -0.3872544039   -0.0420089021
H       -1.6568813511    0.6418289507   -1.3118429089
H       -1.3556247547   -1.1219626140   -1.3070270523
H       -0.9624241211   -1.3108511674    1.7404569107
H       -0.0289408039   -2.1294260896    0.4737458844
H        0.8066952741   -1.0869138691    1.6723120941
H        1.7999606553   -1.5410796406   -0.5267044149
H        1.5567752444    1.5522778935   -1.8352247809
18   
torsion grid (-150,)
C        0.9061790232    0.1830968931   -0.7185515476
C       -0.5653568432    1.2148031883    1.0469550486
C       -1.5004654970   -0.2937912517   -0.6845431076
C       -0.0558834473   -1.1844950652    1.1299732577
N        1.6857230787   -0.6958607827   -1.1502562136
N       -0.2984164959   -0.0200737586    0.2003316294
O        0.9793434364    1.4835026077   -1.0173130173
H       -1.4034185183    0.9838348631    1.7039579818
H        0.3260304409    1.4392370318    1.6313880486
H       -0.8080213044    2.0515128384    0.3984810824
H       -2.3727912516   -0.4290406383   -0.0446628261
H       -1.6438397454    0.5598005577   -1.3462229822
H       -1.3109483764   -1.1957953886   -1.2654984559
H       -0.9111399984   -1.2650074075    1.7997322385
H        0.0300472570   -2.1056360516    0.5556393197
H        0.8547446864   -1.0012134026    1.6993182592
H        1.5414886010   -1.6571380337   -0.8541185064
H        1.7261403678    1.6077896653   -1.6378518962
18   
torsion grid (-135,)
C        0.9090577302    0.1843304325   -0.7204257849
C       -0.6127719656    1.2364484424    1.0122870774
C       -1.4877060376   -0.3510573599   -0.6682268370
C       -0.0097864959   -1.1410253878    1.1683195332
N        1.5406943120   -0.7150701006   -1.3199257097
N       -0.2952106727   -0.0108515770    0.2046777332
O        1.1677315522    1.4909710544   -0.8108401780
H       -1.4614335410    0.9983113049    1.6530383495
H        0.2556627802    1.5016912681    1.6124016662
H       -0.8619934244    2.0498749147    0.3362797398
H       -2.3584255601   -0.4778665946   -0.0246545118
H       -1.6496464136    0.4688933401   -1.3676782966
H       -1.2814693547   -1.2725088288   -1.2108816493
H       -0.8689997968   -1.2470318727    1.8298731294
H        0.1369860119   -2.0686014264    0.6181129371
H        0.8838883020   -0.8967603267    1.7417065148
H        1.2527528198   -1.6799460598   -1.1803868979
H        1.9200851676    1.6057246421   -1.4269185026
18   
torsion grid (-120,)
C        0.9087119328    0.1844833449   -0.7225020232
C       -0.6541045638    1.2563354591    0.9677815762
C       -1.4864385466   -0.4098018815   -0.6462445692
C        0.0335447683   -1.0994893603    1.1956381891
N        1.4122123225   -0.6853087729   -1.4692939435
N       -0.2978740208   -0.0052421624    0.2015935390
O        1.3458173960    1.4399488627   -0.6055521644
H       -1.5160743214    1.0211740712    1.5917231721
H        0.1923084165    1.5531552235    1.5827251600
H       -0.8983903748    2.0470226550    0.2621411241
H       -2.3474234200   -0.5330750675    0.0105019832
H       -1.6761767758    0.3755425858   -1.3775745833
H       -1.2698619305   -1.3486299952   -1.1528462246
H       -0.8222232882   -1.2290317825    1.8579960965
H        0.2332304273   -2.0273223785    0.6624907716
H        0.9123902801   -0.7981288101    1.7652323747
H        0.9936844837   -1.6120190289   -1.4762210748
H        2.1160826282    1.5459129025   -1.2008310906
18   
torsion grid (-105,)
C        0.9063858637    0.1865106364   -0.7236547669
C       -0.6901533259    1.2744334460    0.9182377344
C       -1.4854826355   -0.4738746047   -0.6190181185
C        0.0719050691   -1.0599109587    1.2211992941
N        1.2992242459   -0.6030397113   -1.6120322151
N       -0.3017258775   -0.0042528042    0.1975829647
O        1.5031358283    1.3375546337   -0.4049292764
H       -1.5676890299    1.0500149102    1.5241556756
H        0.1345516222    1.5983037738    1.5473722871
H       -0.9217351541    2.0414167126    0.1813957887
H       -2.3378620228   -0.5806376210    0.0511749192
H       -1.6981342043    0.2670529253   -1.3891024386
H       -1.2623233846   -1.4372767830   -1.0734159832
H       -0.7746745877   -1.1991020511    1.8937520520
H        0.3025229387   -1.9908763267    0.7055124299
H        0.9429331108   -0.7115357799    1.7759898160
H        0.7681266976   -1.4554149535   -1.7687831685
H        2.2904102594    1.4361604209   -0.9786786816
18   
torsion grid (-90,)
C        0.9042637620    0.1861811565   -0.7204245954
C       -0.7175951702    1.2908492157    0.8641727563
C       -1.4748415702   -0.5433633615   -0.5899912371
C        0.1002922804   -1.0239026617    1.2537015076
N        1.1885562352   -0.4678487486   -1.7488686092
N       -0.3021341055   -0.0093150658    0.1979701247
O        1.6420171417    1.1808384074   -0.2181087594
H       -1.6015369400    1.0809594432    1.4658750477
H        0.0938305895    1.6505006173    1.4901950749
H       -0.9481638572    2.0229607878    0.0911446985
H       -2.3261922666   -0.6218669335    0.0849679673
H       -1.7007064109    0.1446956652   -1.4041239972
H       -1.2396710077   -1.5330456794   -0.9780075476
H       -0.7460950364   -1.1734955677    1.9244824346
H        0.3649651794   -1.9578902684    0.7595309000
H        0.9548240014   -0.6311989423    1.8039329692
H        0.5520749001   -1.2014563449   -2.0473817912
H        2.4355276884    1.2819241456   -0.7823086307
18   
torsion grid (-75,)
C        1.0162295990    0.2156482698   -0.7027641014
C       -0.0552187242    0.7519220351    1.4927432529
C       -1.4508596265    0.5375778071   -0.5238576319
C       -0.3751975154   -1.4725973996    0.4159310405
N        1.0577862455    0.4864733690   -1.9236940992
N       -0.2183696941    0.0189878387    0.1719418721
O        2.0860175411    0.0308745803    0.0787197386
H       -0.9719972134    0.6102587260    2.0646836740
H        0.7971300191    0.3416694751    2.0267680348
H        0.1031698734    1.8100973773    1.2848510511
H       -2.2966115494    0.4085812996    0.1503545390
H       -1.3171063791    1.5945139124   -0.7535151968
H       -1.6292726917   -0.0379752284   -1.4314299307
H       -1.2590663501   -1.6243687297    1.0357924548
H       -0.4944187118   -1.9707606910   -0.5459412870
H        0.5148677323   -1.8378061728    0.9253322830
H        0.1814137252    0.6153494104   -2.4213965725
H        2.8868359680    0.1253946112   -0.4756546607
18   
torsion grid (-60,)
C        1.0134931112    0.2138266034   -0.7037175007
C       -0.0615635143    0.7938124157    1.4500380031
C       -1.4642302284    0.4719874665   -0.5520598961
C       -0.3573999661   -1.4773098499    0.4748429828
N        1.0767068155    0.6975196026   -1.8559995141
N       -0.2241968398    0.0042114226    0.1611061030
O        2.0615740925   -0.2236511784    0.0040118316
H       -0.9608425674    0.6475545178    2.0482905727
H        0.8152603553    0.4285982652    1.9788809994
H        0.0589501717    1.8473523210    1.1971746588
H       -2.3152295852    0.3013701097    0.1061985563
H       -1.3797419501    1.5370632424   -0.7671217726
H       -1.5944740230   -0.1023585481   -1.4691108195
H       -1.2557760714   -1.6129919417    1.0769546561
H       -0.4442265461   -2.0232641219   -0.4647309465
H        0.5241698484   -1.8024248675    1.0217072914
H        0.2150263021    0.9993795429   -2.3020022095
H        2.8678328430   -0.0968345118   -0.5355985357
18   
torsion grid (-45,)
C        1.0147476891    0.2116787110   -0.7060787286
C       -0.0720905019    0.8300888722    1.4070670402
C       -1.4717671064    0.4081459778   -0.5855328011
C       -0.3455000648   -1.4775146863    0.5385223636
N        1.1127615998    0.8905765883   -1.7527276669
N       -0.2276458724   -0.0122292409    0.1502312038
O        2.0210750017   -0.4510822105   -0.1253030384
H       -0.9535840214    0.6760433904    2.0296543924
H        0.8266602893    0.5101179094    1.9308667490
H        0.0094340654    1.8771771811    1.1158111548
H       -2.3282856235    0.1968773815    0.0535016845
H       -1.4344182666    1.4780780161   -0.7875384415
H       -1.5516286775   -0.1600449420   -1.5122092226
H       -1.2587014536   -1.5914809101    1.1222170322
H       -0.4001440427   -2.0751499866   -0.3714934067
H        0.5232478566   -1.7628446231    1.1244866581
H        0.2794180021    1.3469238082   -2.1129558616
H        2.8317533748   -0.2915207460   -0.6496546505
18   
torsion grid (-30,)
C        1.0179129367    0.2094623760   -0.7094421849
C       -0.0945657954    0.8668739821    1.3698567128
C       -1.4725924485    0.3413316950   -0.6212422909
C       -0.3305202046   -1.4718046425    0.5994072404
N        1.1658094510    1.0612489793   -1.6145050538
N       -0.2267467770   -0.0247717415    0.1462776713
O        1.9592252632   -0.6492319576   -0.3064033761
H       -0.9675989280    0.7094854823    2.0036150618
H        0.8152063888    0.5912327686    1.9019348139
H       -0.0429011254    1.9052281532    1.0441494672
H       -2.3334489422    0.1189117598    0.0081159551
H       -1.4670567619    1.4061517854   -0.8485128895
H       -1.5126870417   -0.2468722791   -1.5376324538
H       -1.2522785671   -1.5677417265    1.1726738556
H       -0.3609208835   -2.1144924927   -0.2797720389
H        0.5297477527   -1.7190484280    1.2141962767
H        0.3793369990    1.6611573186   -1.8470411193
H        2.7694109319   -0.4732805418   -0.8268111871
18   
torsion grid (-15,)
C        1.0211641683    0.2088725107   -0.7110762551
C       -0.1307003050    0.9051622263    1.3405293836
C       -1.4631647507    0.2748530601   -0.6583137958
C       -0.3107623658   -1.4603539365    0.6552380268
N        1.2372990333    1.1956238411   -1.4505091387
N       -0.2224303710   -0.0309242966    0.1492496950
O        1.8673927442   -0.8067430953   -0.5241597577
H       -1.0006728907    0.7373510054    1.9756496519
H        0.7857660107    0.6818350856    1.8863426568
H       -0.1149367200    1.9344279333    0.9850772750
H       -2.3322439606    0.0764112629   -0.0318360745
H       -1.4640104231    1.3226204359   -0.9527511541
H       -1.4763011838   -0.3653717411   -1.5399277077
H       -1.2301887821   -1.5412555161    1.2345871944
H       -0.3361588696   -2.1379844385   -0.1963166538
H        0.5529981232   -1.6757914676    1.2781766472
H        0.5215730454    1.9144515148   -1.5159475569
H        2.6707097453   -0.6293438940   -1.0551479758
18   
torsion grid (0,)
C        1.0231262667    0.2104599979   -0.7097070390
C       -0.1790564264    0.9422235409    1.3184962232
C       -1.4458307674    0.2155685183   -0.6929656320
C       -0.2808525265   -1.4433759658    0.7091447323
N        1.3256496224    1.2796113632   -1.2868629604
N       -0.2162148713   -0.0303718883    0.1575555914
O        1.7406352149   -0.9138282967   -0.7548825304
H       -1.0558982988    0.7640981445    1.9408040563
H        0.7329830007    0.7687470872    1.8892438796
H       -0.1947933857    1.9625585753    0.9395349444
H       -2.3272060020    0.0337917205   -0.0782159901
H       -1.4452372870    1.2458414924   -1.0443594953
H       -1.4257969636   -0.4694664453   -1.5402670180
H       -1.1892413586   -1.5142282636    1.3069907956
H       -0.3120234537   -2.1496286473   -0.1172748200
H        0.5962153892   -1.6281491722    1.3250696318
H        0.7007691644    2.0748669017   -1.1815556006
H        2.5281049308   -0.7448781724   -1.3118843081
18   
torsion grid (15,)
C        1.0234087041    0.2101542694   -0.7075164018
C       -0.2329541348    0.9806069955    1.2943100405
C       -1.4296564387    0.1598925745   -0.7212603370
C       -0.2455505329   -1.4229530018    0.7586897635
N        1.4427668533    1.3136351776   -1.1242247986
N       -0.2119475028   -0.0249388261    0.1658362884
O        1.5784393994   -0.9724980127   -0.9827971268
H       -1.1083864025    0.7791150111    1.9108927983
H        0.6785188948    0.8705550608    1.8811682665
H       -0.3022265156    1.9887708405    0.8901961111
H       -2.3214059536   -0.0204363845   -0.1207205050
H       -1.4357906481    1.1765892905   -1.1114833121
H       -1.3730738988   -0.5567729056   -1.5403436997
H       -1.1415518595   -1.4904272608    1.3752665171
H       -0.2791208681   -2.1539133437   -0.0444965146
H        0.6461470563   -1.5736843102    1.3646126816
H        0.9385109560    2.1538121827   -0.8538646565
H        2.3492051395   -0.8136668668   -1.5654006543
18   
torsion grid (30,)
C        1.0206026241    0.2099112499   -0.7053405472
C       -0.2881050911    1.0218571788    1.2583905456
C       -1.4247534875    0.1036920285   -0.7430377382
C       -0.2068045563   -1.3997924162    0.7980559152
N        1.5857921387    1.2997483435   -0.9489885448
N       -0.2137859041   -0.0169736227    0.1674501086
O        1.3959553874   -0.9734785186   -1.1997721465
H       -1.1518825922    0.7944949894    1.8819777293
H        0.6256507063    0.9830566679    1.8507837843
H       -0.4197081122    2.0096623779    0.8196552391
H       -2.3201821097   -0.0698536001   -0.1457794658
H       -1.4422919079    1.1043405332   -1.1735125828
H       -1.3420115454   -0.6456029909   -1.5294567075
H       -1.0942572081   -1.4755267534    1.4258831011
H       -0.2264563934   -2.1524371997    0.0155888712
H        0.6948684965   -1.5072462067    1.4000747678
H        1.2206019287    2.1416728496   -0.5127126327
H        2.1620998744   -0.8236844198   -1.7903952362
18   
torsion grid (45,)
C        1.0158097129    0.2118602299   -0.7045597295
C       -0.3373669690    1.0593346738    1.2155255689
C       -1.4336593003    0.0487804014   -0.7553817300
C       -0.1615270989   -1.3715544441    0.8315614757
N        1.7239516148    1.2406426913   -0.7827481888
N       -0.2210025017   -0.0083730970    0.1608311857
O        1.2179588305   -0.9124758680   -1.4004157238
H       -1.2130455081    0.8371530573    1.8241706475
H        0.5578911655    1.0508124157    1.8371223355
H       -0.4717564550    2.0306454087    0.7407055929
H       -2.3250442666   -0.1101258782   -0.1482916666
H       -1.4658504496    1.0300959632   -1.2285152211
H       -1.3385933673   -0.7326524218   -1.5069323801
H       -1.0483607141   -1.4701225754    1.4572151712
H       -0.1414854313   -2.1444714017    0.0688804183
H        0.7403381827   -1.4197742018    1.4419687027
H        1.4845581713    2.0379330733   -0.2000867859
H        1.9925166321   -0.7738675359   -1.9821852120
18   
torsion grid (60,)
C        1.0126075779    0.2128992378   -0.7052245575
C       -0.3804184234    1.0941977777    1.1686888103
C       -1.4532277709   -0.0047936827   -0.7602346978
C       -0.1147541665   -1.3376961484    0.8609889442
N        1.8492820609    1.1402414226   -0.6295854786
N       -0.2331982606   -0.0008995786    0.1468319018
O        1.0630090759   -0.7972526630   -1.5814612686
H       -1.2815592348    0.8951019898    1.7474120603
H        0.4843931925    1.0909250648    1.8319449600
H       -0.4796879162    2.0536247711    0.6613211608
H       -2.3353836177   -0.1407708386   -0.1346854402
H       -1.5004568987    0.9521783347   -1.2802193365
H       -1.3591729039   -0.8193776764   -1.4740162606
H       -1.0028430949   -1.4671510930    1.4795096360
H       -0.0450818908   -2.1289118507    0.1186618921
H        0.7809702660   -1.3197256693    1.4820838550
H        1.7130044121    1.8585330570    0.0761176778
H        1.8578498412   -0.6772819642   -2.1392693978
18   
torsion grid (75,)
C        1.0554762833    0.1542098459   -0.6572819188
C       -0.2789030442    0.9809475739    1.2813087908
C       -1.4442436465    0.1857681537   -0.7361440872
C       -0.2248646144   -1.4213152298    0.7269999366
N        2.0855335566    0.7898198020   -0.3399168517
N       -0.2274202579   -0.0151482897    0.1511600943
O        0.8946664580   -0.5255257544   -1.7980645718
H       -1.2241669610    0.8457925123    1.8054345425
H        0.5409778476    0.7929597094    1.9735784639
H       -0.2209812506    1.9904426061    0.8747231111
H       -2.3301588831    0.0895301720   -0.1088003520
H       -1.3942836942    1.1833277615   -1.1725136455
H       -1.4448540056   -0.5676514267   -1.5186705006
H       -1.1356220781   -1.5505003041    1.3120825316
H       -0.1955678091   -2.1344127607   -0.0950198252
H        0.6543275929   -1.5350044308    1.3607792527
H        2.0974915513    1.2796424996    0.5501824256
H        1.7218042392   -0.4501400700   -2.3154961961
18   
torsion grid (90,)
C        1.0574509896    0.1562427725   -0.6621512177
C       -0.3033905253    1.0326685919    1.2324045695
C       -1.4639255138    0.1253585673   -0.7377868932
C       -0.1946839922   -1.3926371624    0.7667748481
N        2.1553097566    0.5954293893   -0.2521385072
N       -0.2328053272   -0.0093849993    0.1414847666
O        0.8234835995   -0.2797800818   -1.9034849274
H       -1.2551559770    0.9153177289    1.7490663821
H        0.5058120458    0.8782624231    1.9442520604
H       -0.2368563172    2.0236352713    0.7842820292
H       -2.3371179872    0.0349936408   -0.0921547351
H       -1.4457060497    1.1024614331   -1.2190977299
H       -1.4598580275   -0.6611355058   -1.4868130751
H       -1.1103715632   -1.5335448067    1.3415513667
H       -0.1306619952   -2.1320361922   -0.0309622038
H        0.6772749546   -1.4598240813    1.4162087031
H        2.2217379274    0.9080579057    0.7123641965
H        1.6586752862   -0.2113425240   -2.4094584328
18   
torsion grid (105,)
C        1.0604579945    0.1573179917   -0.6633498626
C       -0.3216000105    1.0851186665    1.1793411365
C       -1.4721626147    0.0625217467   -0.7398294424
C       -0.1784012365   -1.3645781662    0.8132601849
N        2.2006061464    0.3847529790   -0.1990251829
N       -0.2342316888   -0.0077298845    0.1369724343
O        0.7811014852   -0.0088018050   -1.9582801766
H       -1.2628880975    0.9672413988    1.7152152636
H        0.5053760968    0.9939868098    1.8809947006
H       -0.2878801355    2.0526177356    0.6792990801
H       -2.3373617362   -0.0428370119   -0.0857321529
H       -1.4929621711    1.0249958547   -1.2478521677
H       -1.4441351537   -0.7435619046   -1.4679584375
H       -1.0974417908   -1.5009378444    1.3835258266
H       -0.0924818561   -2.1319731759    0.0441100424
H        0.6857715189   -1.3977264550    1.4750296553
H        2.2983242078    0.4919524365    0.8070766428
H        1.6191203263    0.0703829985   -2.4584563444
18   
torsion grid (120,)
C        0.9046951081    0.1800831205   -0.7289791542
C       -0.3349793938    1.0287292143    1.2304390305
C       -1.6284037641    0.0391367834   -0.6191875806
C       -0.2177167556   -1.4140363737    0.7853168903
N        2.0984467334    0.1724112784   -0.3514215156
N       -0.3257238468   -0.0399107388    0.1563705009
O        0.4995903021    0.3834739004   -1.9841388158
H       -1.2154718338    0.8769765225    1.8545357649
H        0.5664158787    0.9453064527    1.8349429070
H       -0.3743739239    2.0057331306    0.7492691760
H       -2.4371124487   -0.1275386388    0.0920393167
H       -1.7164290148    1.0236974423   -1.0726932248
H       -1.6340701542   -0.7283954471   -1.3896423363
H       -1.0985878623   -1.5746792440    1.4066709753
H       -0.1729386284   -2.1582753527   -0.0094991647
H        0.6814661889   -1.4648136709    1.3967610916
H        2.2890103443    0.0059710738    0.6334427991
H        1.2955984842    0.5216564119   -2.5374683474
18   
torsion grid (135,)
C        0.9036968239    0.1778890232   -0.7291063272
C       -0.3502656078    1.0703981961    1.1853223206
C       -1.6211002483   -0.0237717897   -0.6306090938
C       -0.2075076181   -1.3883891447    0.8458086798
N        2.0986481213   -0.0175981903   -0.4110750396
N       -0.3231720522   -0.0458226627    0.1591385713
O        0.4933546968    0.6488829812   -1.9090132734
H       -1.2287605270    0.9345051452    1.8163516059
H        0.5570805292    1.0251433737    1.7859517056
H       -0.4055019076    2.0230974577    0.6589304438
H       -2.4304915628   -0.2135840924    0.0739154016
H       -1.7425410009    0.9499456994   -1.0973963282
H       -1.5873096648   -0.8015466141   -1.3912641178
H       -1.0994450830   -1.5355809279    1.4540185361
H       -0.1322730094   -2.1661746591    0.0865406606
H        0.6715150265   -1.4015628525    1.4875269185
H        2.2964807798   -0.3758437070    0.5194514535
H        1.2870077178    0.8155386288   -2.4577338041
18   
torsion grid (150,)
C        0.9015878913    0.1775506773   -0.7259955364
C       -0.3755859574    1.1118016860    1.1492108492
C       -1.6029784350   -0.0818292747   -0.6444047739
C       -0.1914830597   -1.3541577976    0.9086221321
N        2.0730064813   -0.2116919557   -0.5188812034
N       -0.3180497418   -0.0446376191    0.1683034289
O        0.5104996070    0.8980119790   -1.7812874017
H       -1.2484793208    0.9755864559    1.7881119543
H        0.5362663131    1.1124171210    1.7455061655
H       -0.4596040908    2.0398021876    0.5846277300
H       -2.4196511579   -0.2862356871    0.0474120239
H       -1.7483144304    0.8766502195   -1.1339889177
H       -1.5257730248   -0.8747332330   -1.3872648896
H       -1.0986693646   -1.4997126042    1.4937284609
H       -0.0735861718   -2.1610708857    0.1861375659
H        0.6616420270   -1.3170022641    1.5842966145
H        2.2593778594   -0.7599885133    0.3160999629
H        1.2992099892    1.0747653729   -2.3334758525
18   
torsion grid (165,)
C        0.8995046117    0.1782621203   -0.7214876612
C       -0.4120576381    1.1469814074    1.1211787943
C       -1.5770314621   -0.1377211420   -0.6605383901
C       -0.1670770235   -1.3139720122    0.9704423143
N        2.0142827508   -0.3866983758   -0.6582886300
N       -0.3124143503   -0.0401213477    0.1792775305
O        0.5651336069    1.1162523215   -1.6145346069
H       -1.2793984374    0.9981094670    1.7646628831
H        0.4994736001    1.1956660203    1.7167056442
H       -0.5275807998    2.0522892089    0.5279793366
H       -2.4083052895   -0.3338708619    0.0162630822
H       -1.7276446102    0.7976973979   -1.1916520083
H       -1.4614215540   -0.9587770222   -1.3679770483
H       -1.0715352722   -1.4471869751    1.5626284486
H       -0.0451960513   -2.1513346094    0.2838063295
H        0.6875559521   -1.2341855190    1.6415936232
H        2.1585975639   -1.0930335013    0.0577487061
H        1.3445298161    1.2871692881   -2.1810500347
18   
torsion grid (180,)
C        0.8993697769    0.1791874200   -0.7182428449
C       -0.4589873535    1.1718798471    1.0980058898
C       -1.5485222996   -0.1896993077   -0.6782701078
C       -0.1363862979   -1.2718063614    1.0285625130
N        1.9298329119   -0.5246264132   -0.8101204376
N       -0.3084040325   -0.0359276221    0.1867853447
O        0.6631139631    1.2905464683   -1.4252192891
H       -1.3137120089    0.9946524480    1.7507231161
H        0.4527838958    1.2768235866    1.6862323628
H       -0.6194361869    2.0565608668    0.4868648664
H       -2.3990308122   -0.3597996445   -0.0181426823
H       -1.6887522287    0.7189315410   -1.2584975506
H       -1.4050590883   -1.0441535362   -1.3399178458
H       -1.0223133361   -1.3788924935    1.6532678650
H       -0.0424968063   -2.1427495476    0.3801384385
H        0.7431988497   -1.1600929760    1.6622783647
H        2.0054225416   -1.3507696197   -0.2233550006
H        1.4287939252    1.4454612089   -2.0143346892
