29   
torsion grid (-165,)
C        2.5427444524    0.9083218608   -0.5648125176
C        3.8207374846    0.7877346038   -1.0528498411
C        1.8746188899   -0.2619815451   -0.1214734014
C        4.3709238457   -0.5132688051   -1.0763449282
C       -0.1509071057    1.0426331437    0.8913158569
C       -0.5872765559    0.4660157144   -0.4294899559
C        0.4706387653   -0.2586074054    0.4130711799
C       -1.9890556790   -1.1674142942   -1.7575731407
C        6.1792512195   -1.9728802451   -1.5776822160
C       -1.9636933954   -0.1338095540   -0.6246700433
N        2.4682089109   -1.4548886234   -0.1723498902
N        3.7166780617   -1.5850339639   -0.6535447459
N        0.0326507948   -1.4361533423    1.1301773163
O        5.6286575401   -0.6431008040   -1.5576227484
H        2.0615691392    1.8802502774   -0.5223981175
H        4.4029548206    1.6330318980   -1.4065638006
H        0.4498652153    1.9469028935    0.9134852546
H       -0.8389309590    0.9375464555    1.7250556139
H       -0.1816910268    0.9589144302   -1.3125123676
H       -1.6760068556   -0.7239654319   -2.7101661893
H       -2.9943777864   -1.5796876125   -1.8956776505
H       -1.3111513397   -1.9990089626   -1.5387943375
H        7.1807122277   -1.8581025177   -1.9936476778
H        5.5742341458   -2.6333113382   -2.2042614777
H        6.2258082305   -2.3880444109   -0.5675676734
H       -2.2811833809   -0.6039391185    0.3096310213
H       -2.6739385058    0.6755033671   -0.8400322667
H        0.5341619703   -1.4792349344    2.0173592302
H        0.3417532634   -2.2587770759    0.6126307219
29   
torsion grid (-150,)
C        2.6524686327    0.9771471146   -0.3233337107
C        3.9309106241    0.8276011532   -0.8077251408
C        1.8769967266   -0.1849511924   -0.0949725929
C        4.3698053609   -0.4929782564   -1.0414340440
C       -0.2109483775    1.1406885325    0.7836159329
C       -0.5925812928    0.4544467523   -0.5040598940
C        0.4626876819   -0.1672573586    0.4169091593
C       -1.8984897035   -1.3164238604   -1.7504669523
C        6.0595675430   -2.0052162483   -1.7569360855
C       -1.9422804883   -0.2039890463   -0.6950981695
N        2.3736874468   -1.4018860487   -0.3282761993
N        3.6173810273   -1.5602251573   -0.8052584129
N        0.0413379108   -1.3063562269    1.2069149176
O        5.6232432317   -0.6533682812   -1.5240534078
H        2.2551948213    1.9654840781   -0.1173575245
H        4.5930769475    1.6655871975   -1.0026097302
H        0.3447850360    2.0723411393    0.7471105901
H       -0.9176785183    1.0713666778    1.6053089866
H       -0.1750882552    0.9009874488   -1.4059962316
H       -1.5698908912   -0.9309482771   -2.7228136093
H       -2.8852317269   -1.7717351241   -1.8879116945
H       -1.2002809880   -2.1056748055   -1.4534564688
H        7.0767518561   -1.9120006296   -2.1386851393
H        5.4161187786   -2.4993406655   -2.4894739448
H        6.0468667873   -2.5818029324   -0.8284056084
H       -2.2740278202   -0.6162492516    0.2614551726
H       -2.6710687936    0.5628887520   -0.9895034607
H        0.5215341245   -1.2751621511    2.1061829638
H        0.3741399565   -2.1527728632    0.7452012446
29   
torsion grid (-135,)
C        2.7230270741    0.9713086759   -0.0787779287
C        4.0075097610    0.7973203208   -0.5431412291
C        1.8556355518   -0.1441824116   -0.0646966819
C        4.3545296659   -0.5009954076   -0.9698015634
C       -0.2680667444    1.2189454017    0.6591996871
C       -0.6154409387    0.4153336136   -0.5720583136
C        0.4292686329   -0.1033406574    0.4140413364
C       -1.8746366491   -1.4620264990   -1.7044768858
C        5.9530400164   -2.0165529546   -1.8668212732
C       -1.9515551338   -0.2788448089   -0.7307945802
N        2.2690530941   -1.3485113249   -0.4687999274
N        3.5158620995   -1.5307909397   -0.9231861947
N        0.0120483649   -1.1889603264    1.2813411787
O        5.6099008221   -0.6859110339   -1.4376759492
H        2.3894094870    1.9402544222    0.2778244388
H        4.7390248636    1.5986524664   -0.5816317432
H        0.2716180368    2.1531983693    0.5395133754
H       -0.9888675590    1.2142709518    1.4714379633
H       -0.1897247518    0.7931766357   -1.5009099853
H       -1.5542581815   -1.1371052990   -2.7012995553
H       -2.8482588243   -1.9528677208   -1.8096105173
H       -1.1542573718   -2.2083157954   -1.3541959370
H        6.9879543167   -1.9465850274   -2.2031711028
H        5.3027473344   -2.3401461103   -2.6835962809
H        5.8628944881   -2.7257582371   -1.0399978835
H       -2.2892528518   -0.6275727602    0.2487354087
H       -2.6897521412    0.4516032820   -1.0877245878
H        0.5100711777   -1.1142645395    2.1682011148
H        0.3133156770   -2.0667555362    0.8579386763
29   
torsion grid (-120,)
C        2.7873842412    0.9380629430    0.1172762164
C        4.0822113583    0.7508237472   -0.3134387636
C        1.8553041069   -0.1036406479   -0.0830313546
C        4.3697472043   -0.4878481585   -0.9224819710
C       -0.2750972658    1.2941742606    0.5162989320
C       -0.6178684651    0.3940488996   -0.6506575762
C        0.4218808269   -0.0424610365    0.3710155566
C       -1.8794032710   -1.5598943792   -1.6427661287
C        5.9178511660   -1.9566410454   -1.9735330434
C       -1.9546589910   -0.3090073966   -0.7573900267
N        2.2109318359   -1.2570120342   -0.6553066309
N        3.4674139785   -1.4525480884   -1.0759963910
N        0.0105635784   -1.0692637063    1.3120479511
O        5.6344660378   -0.6862051665   -1.3581030005
H        2.4877879121    1.8593588479    0.6071893991
H        4.8627529674    1.4964020411   -0.1966292444
H        0.2717084202    2.2115940218    0.3190381993
H       -0.9995104610    1.3592366039    1.3227643241
H       -0.1925469544    0.7004415734   -1.6053271532
H       -1.5613627295   -1.3076048470   -2.6609818875
H       -2.8530968852   -2.0574039906   -1.7092820583
H       -1.1563959251   -2.2782695936   -1.2432516381
H        6.9718842579   -1.9079432480   -2.2486731620
H        5.2942395883   -2.1062661187   -2.8585958566
H        5.7393741816   -2.7755399429   -1.2719377050
H       -2.2938218049   -0.5843500207    0.2448773523
H       -2.6924038429    0.3936729086   -1.1669733837
H        0.5327230686   -0.9582853602    2.1810430603
H        0.2720212592   -1.9780685102    0.9294777519
29   
torsion grid (-105,)
C        2.8411910277    0.8114780497    0.2817784138
C        4.1424324446    0.6007949751   -0.1155934647
C        1.8588610245   -0.1247924855   -0.1108069721
C        4.3831375521   -0.5554243265   -0.8872176122
C       -0.2542557272    1.3285937032    0.3594920931
C       -0.6109804246    0.3349047683   -0.7267999908
C        0.4218062605   -0.0265923190    0.3227773919
C       -1.9109064499   -1.6693591356   -1.5551998047
C        5.8898227817   -1.9575566331   -2.0797908696
C       -1.9600640652   -0.3514300942   -0.7710009885
N        2.1679386164   -1.2032815710   -0.8340558716
N        3.4323066531   -1.4218799301   -1.2232027117
N        0.0076308836   -0.9674145191    1.3501123982
O        5.6542913816   -0.7754182423   -1.2920955890
H        2.5658812602    1.6736662995    0.8825161743
H        4.9602370671    1.2683920483    0.1380203600
H        0.3153458018    2.2122315692    0.0848902272
H       -0.9779782350    1.4763239464    1.1557961344
H       -0.1839161958    0.5495036590   -1.7050556681
H       -1.5910517248   -1.5037720244   -2.5903031218
H       -2.8937898824   -2.1524732060   -1.5801360266
H       -1.1990840633   -2.3675236859   -1.1031442720
H        6.9579006549   -1.9422348573   -2.2989697308
H        5.3055309229   -1.9305508520   -3.0030705646
H        5.6235939915   -2.8567334809   -1.5183516398
H       -2.2993033559   -0.5403457976    0.2512493550
H       -2.6884402051    0.3286838722   -1.2319919800
H        0.5475491483   -0.8061415938    2.2000883333
H        0.2276474746   -1.9125607901    1.0358054718
29   
torsion grid (-90,)
C        2.8821139207    0.6692700934    0.4331087396
C        4.1879518820    0.4402655703    0.0668561271
C        1.8696154824   -0.1312565280   -0.1450875111
C        4.4026082466   -0.5972474240   -0.8667606637
C       -0.2275458250    1.3666405287    0.1976191497
C       -0.5956310681    0.2923279690   -0.8063122694
C        0.4294860030    0.0022710169    0.2669689028
C       -1.9270902077   -1.7552365323   -1.4615653475
C        5.8909712921   -1.8934438612   -2.1943059928
C       -1.9558123486   -0.3732020110   -0.7955809577
N        2.1518387279   -1.0955547278   -1.0215206028
N        3.4235981001   -1.3309653538   -1.3843141215
N        0.0091487490   -0.8456446144    1.3709480100
O        5.6801477368   -0.8368005021   -1.2389748120
H        2.6196951376    1.4501472273    1.1421571792
H        5.0274386570    1.0095301616    0.4541947475
H        0.3633482657    2.2133187056   -0.1418624617
H       -0.9507983282    1.5888252223    0.9772001434
H       -0.1649348844    0.4177946580   -1.7978035472
H       -1.5961635449   -1.6869981943   -2.5039106717
H       -2.9189272340   -2.2203648112   -1.4520539904
H       -1.2323571123   -2.4248595340   -0.9441794325
H        6.9692426211   -1.9172979792   -2.3550145876
H        5.3654050965   -1.6810862371   -3.1287531738
H        5.5380061923   -2.8492836342   -1.7988831533
H       -2.3024525477   -0.4664482744    0.2374934940
H       -2.6711523031    0.2756189922   -1.3178106275
H        0.5446473098   -0.6175851595    2.2080479206
H        0.2127131359   -1.8185482993    1.1423111910
29   
torsion grid (-75,)
C        2.8861103622    0.5032034683    0.5933956913
C        4.1947533014    0.2620905768    0.2517898355
C        1.8640136389   -0.1344937802   -0.1513441267
C        4.4049538616   -0.6223742767   -0.8306651686
C       -0.2155651524    1.4074023613    0.0287415670
C       -0.5898396045    0.2527051480   -0.8780440818
C        0.4189448935    0.0423792734    0.2268565769
C       -1.9521241210   -1.8238166659   -1.3553086803
C        5.8948480178   -1.7695665348   -2.2865668912
C       -1.9619649650   -0.3853074795   -0.8216617264
N        2.1418338442   -0.9533048554   -1.1640102507
N        3.4197358579   -1.1992191305   -1.5066727410
N       -0.0250353209   -0.6894591248    1.4025578815
O        5.6870623049   -0.8736515935   -1.1784732512
H        2.6276244189    1.1785686195    1.4053522177
H        5.0405078153    0.7143764392    0.7606526212
H        0.3973485259    2.2090771068   -0.3746635085
H       -0.9417520279    1.7083891194    0.7789589035
H       -0.1456121585    0.2774044732   -1.8704063007
H       -1.6048508937   -1.8599082979   -2.3937844966
H       -2.9529725537   -2.2677687122   -1.3176050262
H       -1.2790983299   -2.4552633313   -0.7656906264
H        6.9776132415   -1.8323121086   -2.3994355271
H        5.4334535657   -1.3746265430   -3.1952118676
H        5.4707106312   -2.7540037533   -2.0732005654
H       -2.3225588792   -0.3755575746    0.2109107160
H       -2.6590881740    0.2238900201   -1.4116898027
H        0.4868161042   -0.3798872390    2.2279430417
H        0.1715319251   -1.6825462741    1.2816928487
29   
torsion grid (-60,)
C        2.8541475877    0.3037457876    0.7684499945
C        4.1647463817    0.0534660545    0.4446125494
C        1.8389845199   -0.1437888255   -0.1139717323
C        4.3877786003   -0.6460267147   -0.7638248004
C       -0.2132442870    1.4394954034   -0.1239196818
C       -0.5991778889    0.2102356817   -0.9167494207
C        0.3897634532    0.0858349408    0.2212108752
C       -1.9973917653   -1.8795037195   -1.1901383913
C        5.8934732207   -1.6122194165   -2.3301180963
C       -1.9852522284   -0.3912923997   -0.8171429287
N        2.1307438086   -0.7913879109   -1.2394569612
N        3.4118229441   -1.0432963562   -1.5683922085
N       -0.0929969945   -0.5084696547    1.4563950745
O        5.6726931592   -0.9063703558   -1.0945662247
H        2.5937120073    0.8471653903    1.6732869323
H        5.0038910648    0.3674172204    1.0578456708
H        0.4270931589    2.1822068586   -0.5917772133
H       -0.9403854436    1.8288735997    0.5838574996
H       -0.1392151945    0.1259490499   -1.8976278484
H       -1.6163048339   -2.0378011394   -2.2050522325
H       -3.0105868601   -2.2933593623   -1.1408584408
H       -1.3637533960   -2.4580124863   -0.5091735344
H        6.9762801595   -1.7161845295   -2.4062499061
H        5.4990860658   -1.0437675038   -3.1762158240
H        5.4115451000   -2.5929141192   -2.3070519972
H       -2.3648364659   -0.2620426863    0.2004369866
H       -2.6577910124    0.1627967228   -1.4848328937
H        0.3666600154   -0.0934285438    2.2651857718
H        0.1111155830   -1.5067395550    1.4679588189
29   
torsion grid (-45,)
C        2.8368873194    0.0395381738    0.8693777943
C        4.1493835471   -0.2243546430    0.5632935991
C        1.8484961151   -0.1866379236   -0.1218360042
C        4.4052795278   -0.7085920084   -0.7393967686
C       -0.1594506241    1.4340237745   -0.3322145954
C       -0.5715515259    0.1440182662   -0.9987074293
C        0.3997382690    0.1068092711    0.1669896743
C       -2.0277702891   -1.9236799410   -1.0613388119
C        5.9437870513   -1.4687808163   -2.3849122110
C       -1.9756418623   -0.4043392373   -0.8545993935
N        2.1738167274   -0.6365008105   -1.3321757937
N        3.4558161127   -0.8976257236   -1.6449294369
N       -0.1290770482   -0.3426430008    1.4411550460
O        5.6920007560   -0.9816489098   -1.0536151372
H        2.5609682678    0.4220832742    1.8480504156
H        4.9671893550   -0.0738247083    1.2613863083
H        0.5160707614    2.1010996452   -0.8600453520
H       -0.8813392366    1.9189392223    0.3200432391
H       -0.0991608877   -0.0532136211   -1.9563614440
H       -1.6365664419   -2.2045878531   -2.0455492728
H       -3.0536328703   -2.3007674516   -0.9858094174
H       -1.4239335769   -2.4407030362   -0.3074480172
H        7.0223756168   -1.6227459207   -2.4300726651
H        5.6263162537   -0.7363632443   -3.1315442925
H        5.4116473000   -2.4071006749   -2.5609563243
H       -2.3657834920   -0.1534272063    0.1357732407
H       -2.6217607385    0.0909193654   -1.5910839782
H        0.2757958803    0.1747586784    2.2186207860
H        0.0712335763   -1.3306733591    1.5848695803
29   
torsion grid (-30,)
C        2.7874814458   -0.2066703396    0.9385241051
C        4.1003998088   -0.4867802154    0.6429240058
C        1.8400063399   -0.2028940358   -0.1153110481
C        4.4001209761   -0.7482931212   -0.7113122068
C       -0.1321216322    1.4237102482   -0.5030143985
C       -0.5710031501    0.0851767978   -1.0343427836
C        0.3977452024    0.1449252283    0.1401770852
C       -2.0725634995   -1.9467398593   -0.8901218479
C        5.9806383543   -1.2923005869   -2.4022879564
C       -1.9866737624   -0.4157424876   -0.8409523472
N        2.2089807172   -0.4478366886   -1.3732427923
N        3.4884101956   -0.7217162224   -1.6743038151
N       -0.1555111326   -0.1637881998    1.4424397930
O        5.6868076384   -1.0335290466   -1.0170495581
H        2.4841634345    0.0067117239    1.9588803487
H        4.8870095088   -0.5081189478    1.3910062499
H        0.5680341008    2.0108974525   -1.0896386535
H       -0.8438178523    1.9910809355    0.0912212769
H       -0.0953780221   -0.2157638796   -1.9630030096
H       -1.6864675195   -2.3364416105   -1.8388215809
H       -3.1066259568   -2.2917007674   -0.7806847197
H       -1.4826352684   -2.3967404488   -0.0838499283
H        7.0515848547   -1.4958471353   -2.4307889753
H        5.7361056762   -0.4236623390   -3.0191076398
H        5.4139981327   -2.1540958380   -2.7642182864
H       -2.3752132500   -0.0555041488    0.1156106312
H       -2.6186521610    0.0145831238   -1.6287773926
H        0.2387171581    0.4277194666    2.1707414776
H        0.0169183405   -1.1352227511    1.6932768502
29   
torsion grid (-15,)
C        2.7379541313   -0.4231737232    0.9334167407
C        4.0451794683   -0.7390646569    0.6421928258
C        1.8450190716   -0.1816405327   -0.1385266080
C        4.3940516098   -0.7917787136   -0.7229572594
C       -0.1179518223    1.4195249963   -0.6532835599
C       -0.5640153703    0.0462063041   -1.0681678121
C        0.4107766834    0.2016645296    0.0994844848
C       -2.0681626555   -1.9657573558   -0.7532957932
C        6.0168404045   -1.1551316202   -2.4226959295
C       -1.9793903261   -0.4361370726   -0.8323577049
N        2.2609098982   -0.2376605711   -1.4064466990
N        3.5320932610   -0.5436291622   -1.7014545220
N       -0.1452670768    0.0068010861    1.4201912621
O        5.6746306358   -1.1083738711   -1.0255463237
H        2.4014487236   -0.3631269056    1.9634193028
H        4.7912796262   -0.9390711791    1.4052066569
H        0.5869779253    1.9448661804   -1.2900483452
H       -0.8244793675    2.0393432677   -0.1077559162
H       -0.0854095828   -0.3306523955   -1.9679852607
H       -1.6832619492   -2.4340008428   -1.6664045435
H       -3.1027820823   -2.2986121816   -0.6157954768
H       -1.4793942644   -2.3493311767    0.0876081342
H        7.0733526704   -1.4243337090   -2.4461060784
H        5.8560010500   -0.1821669106   -2.8942551139
H        5.4160219656   -1.9047027572   -2.9442853848
H       -2.3674541097    0.0048945717    0.0898101570
H       -2.6110037194   -0.0729841950   -1.6537172235
H        0.2849161278    0.6258001594    2.1042457202
H       -0.0254334157   -0.9533456708    1.7363919497
29   
torsion grid (0,)
C        2.6724166186   -0.6121609555    0.8998064100
C        3.9714710519   -0.9659325371    0.6130830415
C        1.8508472971   -0.1456645100   -0.1540098357
C        4.3833194779   -0.8302995813   -0.7280793931
C       -0.1154983239    1.4134189845   -0.7716501884
C       -0.5590586256    0.0136575981   -1.0820879350
C        0.4218980675    0.2600374274    0.0692395677
C       -2.0544036193   -1.9778913258   -0.6167825511
C        6.0635184648   -1.0310579267   -2.3988607984
C       -1.9712813309   -0.4578467529   -0.8087264181
N        2.3220495620   -0.0414806722   -1.4002654488
N        3.5846054525   -0.3830696314   -1.6898431357
N       -0.1269827606    0.1696131973    1.4031619161
O        5.6578266240   -1.1759461019   -1.0257990905
H        2.2911240595   -0.6889811508    1.9128288872
H        4.6653881243   -1.3321433393    1.3635607438
H        0.5851921215    1.8893111671   -1.4497104762
H       -0.8224135126    2.0660286637   -0.2671328366
H       -0.0791801722   -0.4273128733   -1.9526581984
H       -1.6714686847   -2.5109894329   -1.4945115714
H       -3.0872563669   -2.3032188492   -0.4511865285
H       -1.4613173116   -2.2979310512    0.2475226563
H        7.1037684271   -1.3575492854   -2.4222971363
H        5.9785981962    0.0101300235   -2.7208096576
H        5.4486655213   -1.6547852883   -3.0529968257
H       -2.3592791738    0.0497414037    0.0786127884
H       -2.6062299959   -0.1587014044   -1.6530225461
H        0.3540337625    0.7957421398    2.0459382286
H       -0.0675730934   -0.7771807093    1.7721051407
29   
torsion grid (15,)
C        2.4987880458   -1.7195854826    0.2496113240
C        3.8367086138   -1.7899073500   -0.0641062260
C        1.8375713098   -0.4744722785    0.1194090123
C        4.4477338914   -0.5959033033   -0.4993050462
C       -0.1532483656    1.0812948836    0.6764006135
C       -0.4590197800    0.4321849973   -0.6425831734
C        0.3704653817   -0.3224121750    0.4030996715
C       -1.8465241733   -1.1441764401   -2.0613658399
C        6.3748222047    0.5776749000   -1.2500368065
C       -1.8541574011   -0.0274270749   -1.0090637977
N        2.4896289408    0.6102745234   -0.3078752061
N        3.7927460263    0.5524926847   -0.6171962512
N       -0.3114381086   -1.3742056143    1.1245018642
O        5.7649022353   -0.6481911659   -0.8069621678
H        1.9663316401   -2.6010411170    0.5921496218
H        4.4160462679   -2.7051831762    0.0098462892
H        0.5777652093    1.8818865727    0.6945621182
H       -0.9573548762    1.1357099804    1.4042850101
H        0.1432335228    0.7934069495   -1.4738612351
H       -1.3376103379   -0.8236639636   -2.9776533418
H       -2.8645584773   -1.4452299063   -2.3313963027
H       -1.3238139736   -2.0329065942   -1.6891416213
H        7.4176707182    0.3218705886   -1.4405323949
H        6.3013079011    1.3485324708   -0.4784909878
H        5.8943920523    0.9426769291   -2.1615735247
H       -2.3714738457   -0.3687128050   -0.1081512116
H       -2.4147444122    0.8352209770   -1.3924282867
H        0.1045468428   -1.5167982453    2.0428219675
H       -0.2876542388   -2.2588047307    0.6216592683
29   
torsion grid (30,)
C        2.4212044859   -1.7078825645    0.0155637844
C        3.7516567918   -1.8052655967   -0.3159826348
C        1.8376769600   -0.4201489198    0.1118328880
C        4.4360341855   -0.5913539668   -0.5407504382
C       -0.1554222997    1.1635994821    0.5914420007
C       -0.4723976762    0.4207689144   -0.6777362991
C        0.3748222035   -0.2477487949    0.4111128326
C       -1.8624359182   -1.2632948282   -1.9653951975
C        6.4338974000    0.5731398513   -1.0941619122
C       -1.8675037266   -0.0747454767   -0.9947192323
N        2.5526446066    0.6797335938   -0.1305425039
N        3.8528221657    0.5967643699   -0.4561889941
N       -0.2876568477   -1.2520607559    1.2174320130
O        5.7485406898   -0.6708056440   -0.8605937912
H        1.8324115674   -2.6011498735    0.2003253303
H        4.2731097193   -2.7528143905   -0.4111246756
H        0.5642183257    1.9726420043    0.5494240125
H       -0.9547804872    1.2597190402    1.3200022625
H        0.1135598049    0.7272195384   -1.5426016723
H       -1.3651550912   -1.0052295755   -2.9074822687
H       -2.8808184208   -1.5894691674   -2.2028576553
H       -1.3296207939   -2.1202751964   -1.5369896633
H        7.4596034506    0.2902310567   -1.3331330647
H        6.4052989384    1.2048032465   -0.2025431172
H        5.9790970727    1.1158439377   -1.9269201989
H       -2.3706660090   -0.3551561262   -0.0652395913
H       -2.4410704651    0.7535247523   -1.4310743101
H        0.1682056230   -1.3428110068    2.1234017500
H       -0.2861250225   -2.1658531872    0.7694147639
29   
torsion grid (45,)
C        2.3423396027   -1.6455292169   -0.2782764672
C        3.6694358085   -1.7697535777   -0.6084123541
C        1.8409191547   -0.3608826756    0.0523110247
C        4.4349881027   -0.5819610713   -0.5914819272
C       -0.1541129935    1.2384041791    0.4781475994
C       -0.5019171126    0.3984366889   -0.7252054582
C        0.3859607170   -0.1719974687    0.3830526025
C       -1.9080605189   -1.3970407223   -1.8314080622
C        6.5169825985    0.5261972817   -0.8922037104
C       -1.8998039786   -0.1345656901   -0.9591086012
N        2.6267841066    0.7142065839    0.0312915926
N        3.9283186930    0.6055596073   -0.2922001039
N       -0.2340432480   -1.1296798103    1.2800550823
O        5.7461966412   -0.6896395107   -0.9060268987
H        1.6874668548   -2.5124363463   -0.2815284411
H        4.1312626673   -2.7143917593   -0.8788653331
H        0.5519214273    2.0518315059    0.3614709884
H       -0.9348672842    1.3815905839    1.2190362191
H        0.0462086642    0.6492999298   -1.6323467194
H       -1.4407398694   -1.2113786861   -2.8054558176
H       -2.9286704872   -1.7513560758   -2.0122219619
H       -1.3539797999   -2.2114802857   -1.3501399048
H        7.5276425640    0.2231270418   -1.1676292354
H        6.5069717721    0.9797421890    0.1022166532
H        6.1191050276    1.2450830252   -1.6130340848
H       -2.3702298188   -0.3466222335    0.0049120081
H       -2.4977084237    0.6496731955   -1.4415853041
H        0.2464259788   -1.1287130988    2.1782850998
H       -0.1953933510   -2.0770879700    0.9096725804
29   
torsion grid (60,)
C        2.2895696226   -1.5200615066   -0.5996565826
C        3.6178071314   -1.6639666558   -0.9151901312
C        1.8537744408   -0.2928978558   -0.0384120212
C        4.4487651679   -0.5516240033   -0.6468145008
C       -0.1598977577    1.2886067977    0.3559733187
C       -0.5403075539    0.3536543742   -0.7698077573
C        0.4081794711   -0.1086950523    0.3330865313
C       -1.9541324067   -1.5478517929   -1.6683854866
C        6.6005362880    0.4596450611   -0.6793446697
C       -1.9350754971   -0.2227009536   -0.8949420913
N        2.6972911384    0.7140790469    0.1740063418
N        4.0024407672    0.5858099571   -0.1331666672
N       -0.1372735481   -1.0252439307    1.3209405942
O        5.7613750576   -0.6796756859   -0.9458047898
H        1.5778272900   -2.3192241685   -0.7916482502
H        4.0346518740   -2.5645794683   -1.3555362370
H        0.5198144203    2.1084799157    0.1543942459
H       -0.9136834791    1.4754206621    1.1150348204
H       -0.0464053330    0.5530007372   -1.7203087408
H       -1.5381394119   -1.4280117340   -2.6756254169
H       -2.9731790691   -1.9360646987   -1.7718753984
H       -1.3595585501   -2.3112206648   -1.1528539991
H        7.6005018150    0.1517715167   -0.9865633679
H        6.5834300526    0.7127638828    0.3837683676
H        6.2690720447    1.3274578138   -1.2552111436
H       -2.3528040186   -0.3726605199    0.1042805661
H       -2.5747194456    0.5100053322   -1.4040209718
H        0.3644286127   -0.9142316961    2.2012980430
H       -0.0213990003   -1.9941917513    1.0282023488
29   
torsion grid (75,)
C        2.2376040130   -1.3509773807   -0.8840768608
C        3.5684617322   -1.5204843932   -1.1792099135
C        1.8523010210   -0.2210701141   -0.1210620349
C        4.4486742446   -0.5314857888   -0.6837681520
C       -0.1776566962    1.3510053053    0.2217558696
C       -0.5796695065    0.3273564417   -0.8191548499
C        0.4142970507   -0.0335662185    0.2762213387
C       -1.9882382537   -1.6578532885   -1.5186274363
C        6.6537597677    0.3318848493   -0.4643074722
C       -1.9674244599   -0.2779686184   -0.8477800561
N        2.7412775547    0.6739557248    0.3040291355
N        4.0478422880    0.5190024825    0.0204105979
N       -0.0690571815   -0.8879739281    1.3499884966
O        5.7630622703   -0.6845592772   -0.9613825974
H        1.4846866821   -2.0519999536   -1.2362194974
H        3.9519910969   -2.3505699541   -1.7646000214
H        0.4772115855    2.1671361774   -0.0636287282
H       -0.9083818219    1.5856215729    0.9902588770
H       -0.1278773188    0.4668171321   -1.8010953310
H       -1.6099130982   -1.6077137107   -2.5466074619
H       -3.0026677919   -2.0693848537   -1.5567177601
H       -1.3627615962   -2.3698475253   -0.9674940914
H        7.6461277651    0.0235837667   -0.7948168575
H        6.6090803833    0.3862026409    0.6263749358
H        6.3945848092    1.3095920873   -0.8783722775
H       -2.3434394341   -0.3612420028    0.1754917052
H       -2.6406486660    0.4033431882   -1.3839945672
H        0.4487747610   -0.6764031218    2.2026926314
H        0.1038175254   -1.8689384848    1.1329001923
29   
torsion grid (90,)
C        2.2284215766   -1.1642993137   -1.1312198271
C        3.5623046654   -1.3384503590   -1.4175350148
C        1.8647291764   -0.1720474125   -0.1906576648
C        4.4634844701   -0.4951813164   -0.7313438133
C       -0.1931053475    1.3772417368    0.1011687448
C       -0.6030627640    0.2752224003   -0.8539605337
C        0.4317886065    0.0105387547    0.2274398837
C       -1.9854433196   -1.7778097557   -1.3836268208
C        6.6920632018    0.2166962157   -0.3021149639
C       -1.9766880086   -0.3594347885   -0.7981570823
N        2.7758498344    0.5876515732    0.4172339842
N        4.0816520709    0.4263900200    0.1459744861
N        0.0043514454   -0.7717496684    1.3768720272
O        5.7792752758   -0.6513027015   -0.9999811218
H        1.4598977672   -1.7616356871   -1.6148970849
H        3.9320681570   -2.0709540070   -2.1285682182
H        0.4298198133    2.1870053634   -0.2647146184
H       -0.9016503809    1.6498770057    0.8779579847
H       -0.1888732369    0.3627328696   -1.8583680747
H       -1.6472438146   -1.7808875880   -2.4269173296
H       -2.9892931131   -2.2154121041   -1.3586995526
H       -1.3210428471   -2.4390057162   -0.8152677205
H        7.6816825787   -0.0682127311   -0.6606395042
H        6.6157308655    0.0709489689    0.7783916097
H        6.4837011249    1.2642924966   -0.5336911931
H       -2.3150656241   -0.3889903306    0.2410782939
H       -2.6839424475    0.2728123527   -1.3502653516
H        0.5422294197   -0.4769555695    2.1918970617
H        0.2117108161   -1.7589842500    1.2279912680
29   
torsion grid (105,)
C        2.1762875299   -0.9876058523   -1.3317478905
C        3.5135938819   -1.1529949878   -1.6135920069
C        1.8152509643   -0.1570602830   -0.2470017025
C        4.4194790458   -0.4683773582   -0.7763532032
C       -0.2569109479    1.3837640629   -0.0202416263
C       -0.6801605710    0.2170703599   -0.8870862016
C        0.3843090861    0.0292411632    0.1800740465
C       -2.0604918772   -1.8729088008   -1.2516476272
C        6.6546099438    0.0883276142   -0.1816996947
C       -2.0462907718   -0.4222080436   -0.7521619517
N        2.7335286964    0.4501182150    0.5071059332
N        4.0393578416    0.2952903083    0.2435445454
N       -0.0077565102   -0.6666762202    1.3946139420
O        5.7373424745   -0.6136828691   -1.0414299746
H        1.4081217724   -1.4805473944   -1.9207593062
H        3.8812298324   -1.7713378602   -2.4268095732
H        0.3452066686    2.1727962462   -0.4599161956
H       -0.9439571146    1.7018756147    0.7586441079
H       -0.2998913825    0.2467548466   -1.9078597491
H       -1.7607133471   -1.9353842403   -2.3048625212
H       -3.0581500116   -2.3165202105   -1.1640626921
H       -1.3682455232   -2.4931164303   -0.6707831381
H        7.6452592425   -0.1589996011   -0.5644942598
H        6.5466035839   -0.2439953197    0.8539054993
H        6.4807329911    1.1663857907   -0.2276894225
H       -2.3525699106   -0.3913960231    0.2968937100
H       -2.7749439253    0.1714640581   -1.3190852513
H        0.5632610864   -0.3154320524    2.1636014747
H        0.2005450393   -1.6611994718    1.3071742290
29   
torsion grid (120,)
C        2.1722286349   -0.7835230464   -1.5056131431
C        3.5129136670   -0.9289798332   -1.7852473467
C        1.8018009888   -0.1364089889   -0.3059439632
C        4.4136215303   -0.4128256999   -0.8312056491
C       -0.2876528048    1.3877671033   -0.1422441096
C       -0.7248235615    0.1635066669   -0.9146197417
C        0.3719052252    0.0491494713    0.1300687368
C       -2.0976975702   -1.9549536845   -1.1029625737
C        6.6448679131   -0.0134737038   -0.1094870507
C       -2.0804011062   -0.4758164415   -0.6956440210
N        2.7179547624    0.3110379607    0.5565864843
N        4.0250506996    0.1743601127    0.2969297787
N        0.0125705041   -0.5577996336    1.3998447212
O        5.7341474031   -0.5390440216   -1.0930652982
H        1.4140407889   -1.1661861533   -2.1817431036
H        3.8854348015   -1.4175007082   -2.6804357489
H        0.2921952672    2.1494058780   -0.6547520426
H       -0.9503617887    1.7520229926    0.6375512061
H       -0.3839744503    0.1339731227   -1.9485029032
H       -1.8331982475   -2.0814161157   -2.1598424591
H       -3.0878015782   -2.3988902471   -0.9534654078
H       -1.3800380733   -2.5324681326   -0.5093929260
H        7.6390600955   -0.2132764186   -0.5104126558
H        6.5083501041   -0.5148187228    0.8521168274
H        6.4917215146    1.0602181892    0.0259106594
H       -2.3530587645   -0.3809585424    0.3586915539
H       -2.8312788717    0.0766816514   -1.2750693546
H        0.6196442515   -0.1644038763    2.1192307276
H        0.2142125701   -1.5571804621    1.3698229687
29   
torsion grid (135,)
C        2.2184708754   -0.5617969801   -1.6230971092
C        3.5637880814   -0.6920895377   -1.8852211617
C        1.8212802348   -0.1190228717   -0.3409889145
C        4.4459536017   -0.3686455942   -0.8340705986
C       -0.2922511854    1.3770482061   -0.2719505929
C       -0.7262128528    0.0979420973   -0.9477518285
C        0.3870516264    0.0631212155    0.0864669689
C       -2.0835104774   -2.0406015558   -0.9654497793
C        6.6612047936   -0.1561241580    0.0051585517
C       -2.0720592889   -0.5368559956   -0.6614189452
N        2.7219970624    0.1494192446    0.6083276275
N        4.0338673370    0.0272903038    0.3657179159
N        0.0393238835   -0.4591809938    1.3949772645
O        5.7711105318   -0.4830449704   -1.0781674146
H        1.4812545869   -0.8086165980   -2.3797892411
H        3.9527386496   -1.0332242353   -2.8397206453
H        0.2728011394    2.1042159751   -0.8476776498
H       -0.9443394769    1.7908382468    0.4918731809
H       -0.4098829825    0.0001273624   -1.9843403820
H       -1.8330528191   -2.2381286552   -2.0147300397
H       -3.0682616039   -2.4788916441   -0.7708862575
H       -1.3531899817   -2.5717301342   -0.3448840292
H        7.6631693775   -0.3112068846   -0.3962003966
H        6.4835759957   -0.8094738704    0.8632363911
H        6.5268204420    0.8827668561    0.3171239484
H       -2.3295520725   -0.3701379797    0.3875482275
H       -2.8357083125   -0.0313958564   -1.2666365294
H        0.6797916075   -0.0482491821    2.0743648875
H        0.2191455019   -1.4631251820    1.4137525778
29   
torsion grid (150,)
C        2.2287239432   -0.2716079189   -1.7090692339
C        3.5742514495   -0.4016479320   -1.9619500528
C        1.8092994352   -0.0537288545   -0.3743675133
C        4.4401087918   -0.3056374744   -0.8521394445
C       -0.3521231629    1.3735945205   -0.4116296959
C       -0.7486687894    0.0350218263   -0.9811014177
C        0.3714833122    0.1109935494    0.0475440006
C       -2.0409614757   -2.1378585274   -0.8164929774
C        6.6387856031   -0.3300671573    0.0529898215
C       -2.0732198327   -0.6150629792   -0.6335137798
N        2.6948330309    0.0088341690    0.6230551532
N        4.0101914512   -0.1127974352    0.3882706179
N        0.0338189959   -0.3328424272    1.3848510723
O        5.7664912487   -0.4256183949   -1.0881626778
H        1.5108426680   -0.3435621393   -2.5188746390
H        3.9762287943   -0.5784395081   -2.9548378557
H        0.1925108963    2.0694724802   -1.0433776748
H       -1.0136270304    1.8266398792    0.3211306877
H       -0.4382478811   -0.1438563115   -2.0080915063
H       -1.7881363421   -2.4112934465   -1.8479026640
H       -3.0118931870   -2.5870881268   -0.5817103048
H       -1.2934806257   -2.5963909035   -0.1598240486
H        7.6450082114   -0.4504042141   -0.3496720035
H        6.4161369164   -1.1174375972    0.7777353876
H        6.5322797146    0.6417289015    0.5418810888
H       -2.3314303923   -0.3719770293    0.4000040695
H       -2.8533568594   -0.1822755666   -1.2732373060
H        0.6744153681    0.1206137371    2.0362075858
H        0.2362835938   -1.3297658625    1.4617613600
29   
torsion grid (165,)
C        2.3761159734    0.6665707393   -1.0781036910
C        3.6658719746    0.5848995448   -1.5425486699
C        1.8854571166   -0.3776740929   -0.2521549730
C        4.4095545918   -0.5516003491   -1.1543745740
C       -0.0065115150    0.8381721189    1.0368158086
C       -0.5851956670    0.4853197868   -0.3075610600
C        0.4897677171   -0.4081556052    0.3094095660
C       -2.2131955184   -0.8448560610   -1.7219406228
C        6.4311537485   -1.8017499550   -1.2018455163
C       -2.0105617161   -0.0099118596   -0.4512177976
N        2.6519116896   -1.4232958760    0.0613179119
N        3.9172882798   -1.5113219809   -0.3850648359
N        0.0220872535   -1.6672293191    0.8461479096
O        5.6819863683   -0.6406699808   -1.6050828215
H        1.7557289582    1.5179368230   -1.3380142429
H        4.1151447073    1.3398591611   -2.1803728150
H        0.6718040426    1.6833593919    1.1148903074
H       -0.6225870589    0.6549409324    1.9123135691
H       -0.2557815197    1.1006921812   -1.1422174790
H       -1.9554046440   -0.2731115389   -2.6213404342
H       -3.2543794521   -1.1700299272   -1.8210458040
H       -1.5833819150   -1.7408261743   -1.7068147378
H        7.4116069771   -1.6799898243   -1.6633887943
H        5.9484616758   -2.7163612034   -1.5558025482
H        6.5197068556   -1.8467530318   -0.1132817540
H       -2.2743692401   -0.6035763887    0.4272548596
H       -2.6807585999    0.8595955461   -0.4688696465
H        0.6785092418   -1.9708662443    1.5652369258
H        0.0946409417   -2.3774741226    0.1176342524
29   
torsion grid (180,)
C        2.4489645773    0.8127852232   -0.8214412712
C        3.7302243262    0.7183167404   -1.3042194358
C        1.8811509105   -0.3201298549   -0.1805680969
C        4.3867387194   -0.5201465372   -1.1231300199
C       -0.0760064107    0.9516997974    0.9629761828
C       -0.5821330169    0.4805557473   -0.3738637683
C        0.4827327506   -0.3341001438    0.3672113810
C       -2.1024122481   -1.0080447136   -1.7457495967
C        6.3102758567   -1.8877673508   -1.4066459025
C       -1.9868634037   -0.0599231172   -0.5457074793
N        2.5676509240   -1.4556543481   -0.0534103639
N        3.8240070219   -1.5586806901   -0.5244999776
N        0.0258995626   -1.5524757433    0.9967480501
O        5.6506442764   -0.6223970208   -1.5948435282
H        1.8906161975    1.7376871268   -0.9275027408
H        4.2373985286    1.5371051456   -1.8051892576
H        0.5726145000    1.8217185682    1.0136572517
H       -0.7323280776    0.8180227811    1.8178419376
H       -0.2101574005    1.0250656139   -1.2405282488
H       -1.8089248624   -0.5108379714   -2.6778532529
H       -3.1294305788   -1.3681804979   -1.8690895172
H       -1.4542162984   -1.8810880549   -1.6159599480
H        7.2988101187   -1.7599556447   -1.8489258652
H        5.7625047239   -2.6886892464   -1.9099335523
H        6.3909486897   -2.1281111308   -0.3433643434
H       -2.2818511814   -0.5831385488    0.3672167416
H       -2.6742215838    0.7869194327   -0.6723619330
H        0.5975851819   -1.7212805801    1.8245479729
H        0.2387199998   -2.3344305095    0.3777094525
