26   
torsion grid (-165,)
C       -1.8194876460   -7.0149975511    0.1757414463
C       -1.1730265826   -6.5570673919   -0.9807049115
C       -2.0668548699   -6.1196701598    1.2169614157
C       -0.7827894149   -5.2242892207   -1.0924548012
C       -1.6800085981   -4.7762770699    1.1205080665
C       -1.0368224739   -4.3306510340   -0.0410175527
C        0.7770424536    1.5667629086   -0.5966123178
C        0.6460958535    0.5218227159   -1.4235264808
C       -0.4201819086   -0.7086132179    0.3111951758
C        0.0239274456    1.5708254369    0.7155061314
C       -0.9028315529   -2.0705227660    0.7694518677
N       -0.3250906849    0.2197018919    1.1842524751
N       -0.1583404162   -0.5724926160   -1.0490463754
O       -0.6128781749   -3.0387080498   -0.2401318006
H       -2.1232176454   -8.0544236535    0.2607296342
H       -0.9723403874   -7.2421561543   -1.8003505203
H       -2.5653702747   -6.4606514382    2.1206619278
H       -0.2807916386   -4.8566806216   -1.9830363186
H       -1.8802084875   -4.1030805092    1.9461204758
H        1.4222680578    2.3983054279   -0.8624962296
H        1.1430508771    0.4397498116   -2.3848493222
H        0.6136742564    2.0600071096    1.4994121455
H       -0.9053509381    2.1574913791    0.6301204901
H       -1.9848172215   -2.0260821847    0.9442895953
H       -0.4040523796   -2.3155462254    1.7118443296
H       -0.0540290358   -1.4427346478   -1.5564162394
26   
torsion grid (-150,)
C       -1.7943554370   -7.0083986726    0.1616145545
C       -1.0231469033   -6.5699674599   -0.9238020217
C       -2.1532238638   -6.0959162406    1.1543661830
C       -0.6204286367   -5.2393386200   -1.0151002308
C       -1.7552128251   -4.7544840168    1.0773781492
C       -0.9881848666   -4.3276333019   -0.0139336384
C        0.7731588325    1.5449835268   -0.6461236142
C        0.4661332013    0.5533846851   -1.4914245187
C       -0.4310542192   -0.7025337128    0.3203249058
C        0.2090484025    1.5225404287    0.7570801045
C       -0.9478340457   -2.0518397377    0.7646944594
N       -0.1526255667    0.1697747988    1.2121010237
N       -0.3527085807   -0.5102361461   -1.0591451302
O       -0.5437677642   -3.0387352748   -0.1885504626
H       -2.1069900889   -8.0463985577    0.2302212423
H       -0.7335637736   -7.2692680301   -1.7039117432
H       -2.7479667456   -6.4216324924    2.0038944545
H       -0.0203124359   -4.8871220272   -1.8494110472
H       -2.0414235616   -4.0678515385    1.8657701070
H        1.4273346741    2.3516526440   -0.9619134835
H        0.8231393542    0.4929018124   -2.5145221324
H        0.9288488752    1.9379611277    1.4715984336
H       -0.6867932010    2.1605721150    0.8290201904
H       -2.0441880021   -2.0189808234    0.8210684843
H       -0.5449227347   -2.2637089099    1.7585689674
H       -0.3290861685   -1.3669766295   -1.6001424218
26   
torsion grid (-135,)
C       -1.7452359304   -7.0118680138    0.1573902372
C       -0.8813384010   -6.5747853140   -0.8564740497
C       -2.2124033329   -6.0916588581    1.0965226692
C       -0.4947975257   -5.2383090854   -0.9299603382
C       -1.8327172898   -4.7439704775    1.0374643820
C       -0.9723423937   -4.3193219258    0.0170326729
C        0.7825336801    1.5000585828   -0.6663789054
C        0.2956608126    0.5833806562   -1.5114440351
C       -0.4969840888   -0.6914455983    0.3373452165
C        0.3812237757    1.4468863641    0.7905455584
C       -1.0447158264   -2.0324176025    0.7595887045
N       -0.0372352711    0.1037299862    1.2261234081
N       -0.5622865039   -0.4302868597   -1.0344926024
O       -0.5343310058   -3.0255928834   -0.1365231209
H       -2.0452697380   -8.0543955403    0.2127128650
H       -0.5062650594   -7.2796853666   -1.5939973178
H       -2.8795531299   -6.4166238432    1.8907695433
H        0.1771439611   -4.8862408716   -1.7076333512
H       -2.2038244148   -4.0519194969    1.7847274182
H        1.4663328113    2.2651417195   -1.0205054104
H        0.5300619903    0.5470797264   -2.5704538865
H        1.2091916034    1.7658673200    1.4336124562
H       -0.4451208987    2.1463840027    0.9961357032
H       -2.1424373204   -2.0184614941    0.7107330143
H       -0.7287635684   -2.2210870663    1.7886146777
H       -0.6430054264   -1.2619421408   -1.6089441004
26   
torsion grid (-120,)
C       -1.6735657002   -7.0019913751    0.1641609932
C       -0.7284690387   -6.5701131126   -0.7770967576
C       -2.2455857256   -6.0711371678    1.0320211611
C       -0.3652215122   -5.2271207797   -0.8489999858
C       -1.8900076999   -4.7168297590    0.9721549912
C       -0.9473751858   -4.2960226647    0.0252449566
C        0.8277232474    1.4566926839   -0.7286665578
C        0.1599878559    0.6409162011   -1.5528713789
C       -0.5410273866   -0.6653497872    0.3144281792
C        0.5941357809    1.3515317590    0.7611329168
C       -1.1255754912   -1.9978771006    0.7092342658
N        0.0946760703    0.0302442258    1.1773594684
N       -0.7357914311   -0.3162140077   -1.0282879892
O       -0.5250020092   -2.9969811649   -0.1232760852
H       -1.9551918218   -8.0496577590    0.2191116325
H       -0.2715256964   -7.2837875826   -1.4578941313
H       -2.9766015981   -6.3923719007    1.7696243675
H        0.3686540647   -4.8775830096   -1.5696329996
H       -2.3437874108   -4.0159056210    1.6634684459
H        1.5368836568    2.1770384702   -1.1242583807
H        0.2656967909    0.6487726368   -2.6329312758
H        1.5185481432    1.5502749053    1.3150205476
H       -0.1281294924    2.1111900393    1.1006318026
H       -2.2149219700   -1.9948170470    0.5631307365
H       -0.8964456177   -2.1721989530    1.7634775424
H       -0.9413028302   -1.1047105272   -1.6320747284
26   
torsion grid (-105,)
C       -1.6264934332   -7.0021876337    0.1741834008
C       -0.6008791005   -6.5707785676   -0.6791239486
C       -2.2922618405   -6.0657627529    0.9657046532
C       -0.2502053130   -5.2240743158   -0.7407509683
C       -1.9509379123   -4.7072933479    0.9156204321
C       -0.9267015428   -4.2873240003    0.0566681677
C        0.8379162362    1.4224496002   -0.7452800846
C        0.0133536919    0.7243899275   -1.5346976386
C       -0.5872318242   -0.6531786499    0.3193497855
C        0.7603666503    1.2320449922    0.7521869036
C       -1.1989960408   -1.9838186047    0.6798911543
N        0.1978543103   -0.0715445940    1.1417785291
N       -0.8996766941   -0.1922320830   -0.9682861833
O       -0.5085584253   -2.9858805083   -0.0745503992
H       -1.8976461791   -8.0530548007    0.2205352251
H       -0.0705859205   -7.2886436356   -1.2996947515
H       -3.0866966678   -6.3857433357    1.6351865837
H        0.5446691330   -4.8748385390   -1.3935802121
H       -2.4792149328   -4.0023927944    1.5474711909
H        1.5608305596    2.1082217134   -1.1758264126
H       -0.0008039705    0.7996991038   -2.6171988439
H        1.7528726266    1.3189226051    1.2082990123
H        0.1462414416    2.0196720479    1.2174035554
H       -2.2703478743   -1.9973633538    0.4350388990
H       -1.0657024287   -2.1447889710    1.7529878344
H       -1.2463583607   -0.9086381405   -1.5961922915
26   
torsion grid (-90,)
C       -1.5838479022   -7.0197203390    0.2058305519
C       -0.4788741548   -6.5995852408   -0.5485345980
C       -2.3405757120   -6.0688078993    0.8910346640
C       -0.1396168342   -5.2504829980   -0.6169417261
C       -2.0122248897   -4.7073414829    0.8325179823
C       -0.9072837778   -4.2987622176    0.0735878477
C        0.8240992276    1.4155039303   -0.7767307998
C       -0.1393066310    0.8477870079   -1.5113900261
C       -0.6120371805   -0.6579039923    0.2830153617
C        0.9220738737    1.0874397797    0.6955002875
C       -1.2576297464   -1.9857155019    0.6026955965
N        0.3025194412   -0.2002377962    1.0466329235
N       -1.0373633802   -0.0649376150   -0.9156674534
O       -0.4922144291   -2.9972965437   -0.0570792607
H       -1.8459451242   -8.0726293327    0.2580413402
H        0.1225907409   -7.3283971763   -1.0859169396
H       -3.1977878047   -6.3795590611    1.4829870638
H        0.7152941650   -4.9092847615   -1.1936161207
H       -2.6141349194   -3.9912991689    1.3805417382
H        1.5332709831    2.0971638236   -1.2358219558
H       -0.2825389522    1.0299891785   -2.5715807229
H        1.9688179228    1.0558153759    1.0187661560
H        0.4444256701    1.8712021079    1.3049509310
H       -2.3004579088   -2.0084525781    0.2564318777
H       -1.2331813271   -2.1337309302    1.6862895865
H       -1.5215754492   -0.6866454178   -1.5523385128
26   
torsion grid (-75,)
C       -1.5648910253   -7.0064385738    0.2694461967
C       -0.3882234970   -6.6137475998   -0.3849634429
C       -2.3933347149   -6.0291781325    0.8213915307
C       -0.0490437242   -5.2668336371   -0.4854738545
C       -2.0665831689   -4.6690868920    0.7285176184
C       -0.8885779399   -4.2882628127    0.0714716969
C        0.7827847969    1.5073516231   -0.8054039043
C       -0.2931714288    1.0682301460   -1.4680886756
C       -0.6055481344   -0.6370655510    0.1812278693
C        1.0748934786    0.9779622509    0.5800441286
C       -1.2885617158   -1.9599824528    0.4586346081
N        0.4134924427   -0.3025073153    0.8711560052
N       -1.1405698601    0.1015465257   -0.8846282052
O       -0.4656165565   -2.9925816399   -0.0810045446
H       -1.8268034435   -8.0578382573    0.3472299061
H        0.2696411674   -7.3627914637   -0.8184081047
H       -3.3074282067   -6.3177903146    1.3342041116
H        0.8605544413   -4.9465728310   -0.9852676624
H       -2.7277580822   -3.9327225226    1.1712559553
H        1.4452552241    2.2357857497   -1.2628631546
H       -0.5714907749    1.4027514278   -2.4622631405
H        2.1532296858    0.8393786755    0.7231691454
H        0.7646867783    1.7025396495    1.3497585641
H       -2.2893566176   -1.9894219100    0.0055192602
H       -1.3885044581   -2.0836171952    1.5421448289
H       -1.7326716031   -0.4156570565   -1.5225815949
26   
torsion grid (-60,)
C       -1.5566071518   -7.0578716978    0.3593173781
C       -0.3122370678   -6.6950601608   -0.1766841752
C       -2.4446885324   -6.0571458812    0.7538189289
C        0.0355714558   -5.3538937174   -0.3150448774
C       -2.1101233936   -4.7023271975    0.6200125794
C       -0.8636581910   -4.3511839409    0.0834253198
C        0.7256705657    1.5819118304   -0.7112276898
C       -0.4426512681    1.2592761914   -1.2767313033
C       -0.5666737863   -0.6932383522    0.1053217160
C        1.2162873460    0.8159396414    0.4959137035
C       -1.2847413499   -2.0125243615    0.3249821898
N        0.5396196038   -0.4725629023    0.6974018441
N       -1.2182559210    0.1985847922   -0.7600987454
O       -0.4275471917   -3.0644359770   -0.0982791547
H       -1.8249147558   -8.1049860471    0.4672161882
H        0.3919728561   -7.4630449385   -0.4865606941
H       -3.4122784603   -6.3225994019    1.1723933813
H        0.9967241023   -5.0554895707   -0.7234174029
H       -2.8205792034   -3.9468213725    0.9361755417
H        1.3216382697    2.3924964425   -1.1198950278
H       -0.8576818678    1.7690560230   -2.1402901918
H        2.2935377637    0.6220392691    0.4195972986
H        1.0897841526    1.4113340681    1.4139806199
H       -2.2311741554   -2.0400243873   -0.2335126681
H       -1.5138369315   -2.1158040880    1.3924624739
H       -1.8893567903   -0.2140692620   -1.3958544375
26   
torsion grid (-45,)
C       -1.5516972695   -7.0660649301    0.4294139660
C       -0.2581527521   -6.7249433744    0.0075982607
C       -2.4733773863   -6.0491956763    0.6784109213
C        0.1047245145   -5.3912598654   -0.1607033250
C       -2.1242643832   -4.7015426466    0.5120746797
C       -0.8282448484   -4.3721051679    0.0915700647
C        0.6770717531    1.6699309096   -0.6325356229
C       -0.5580275504    1.4241215665   -1.0826750088
C       -0.5215216745   -0.7108070052    0.0063232242
C        1.3242071707    0.7311457815    0.3593897280
C       -1.2577299879   -2.0284618377    0.1794929185
N        0.6505659171   -0.5678878833    0.4816548944
N       -1.2694726996    0.2864714827   -0.6413019649
O       -0.3733706379   -3.0953183898   -0.1104895509
H       -1.8315958534   -8.1074171484    0.5612631544
H        0.4731745216   -7.5048433886   -0.1889137778
H       -3.4799682434   -6.2963656919    1.0064147536
H        1.1034902874   -5.1100538916   -0.4814610534
H       -2.8636192181   -3.9341676705    0.7122983689
H        1.2165972958    2.5456673587   -0.9809888842
H       -1.0797572211    2.0586364802   -1.7920385295
H        2.3716462486    0.5443920013    0.0896843037
H        1.3577472644    1.1865844903    1.3615860661
H       -2.1355537325   -2.0701536951   -0.4828516188
H       -1.6166715524   -2.0920030580    1.2151894730
H       -2.0043588647   -0.0417972726   -1.2556713700
26   
torsion grid (-30,)
C       -1.5748980262   -7.0756001922    0.4585040104
C       -0.2425779140   -6.7513547793    0.1626904992
C       -2.5135257749   -6.0508215402    0.5781287211
C        0.1414529886   -5.4241921649   -0.0094080356
C       -2.1423512937   -4.7097634311    0.4061256939
C       -0.8079898258   -4.3963098231    0.1122713814
C        0.6367188917    1.7064578385   -0.6026494507
C       -0.6469637589    1.4972260098   -0.9137643467
C       -0.4838995488   -0.7363036118   -0.0585344381
C        1.3931857385    0.6806009127    0.2090735143
C       -1.2273856423   -2.0536235025    0.0783048809
N        0.7396426054   -0.6331774735    0.2740818509
N       -1.3037593990    0.3194440538   -0.4943834079
O       -0.3268961417   -3.1281110364   -0.0811899626
H       -1.8719778902   -8.1117629090    0.5934470495
H        0.5012341898   -7.5384280713    0.0678194374
H       -3.5499110299   -6.2862528607    0.8071135173
H        1.1689563591   -5.1539324356   -0.2343885929
H       -2.8949940463   -3.9353336580    0.5034184990
H        1.1351371729    2.6128308249   -0.9333139334
H       -1.2501115817    2.1922120340   -1.4892743263
H        2.4026013965    0.5345141013   -0.1959342928
H        1.5409097946    1.0325831427    1.2421556741
H       -2.0310501621   -2.1125174077   -0.6723483711
H       -1.6993584487   -2.0817991236    1.0709533447
H       -2.1183934290    0.0530019893   -1.0336983830
26   
torsion grid (-15,)
C       -1.5878618600   -7.0316119769    0.4402666272
C       -0.2296511749   -6.7186763850    0.2816611228
C       -2.5254982293   -5.9991898346    0.4582772158
C        0.1811816769   -5.3956094621    0.1438108306
C       -2.1278966216   -4.6617601642    0.3199553797
C       -0.7679870067   -4.3604304089    0.1625445546
C        0.6592290169    1.7534482907   -0.6262507200
C       -0.6557620316    1.5684439219   -0.7861025534
C       -0.4159676625   -0.7036383460   -0.0668658781
C        1.4818595414    0.6955953708    0.0718557583
C       -1.1641840186   -2.0193969847    0.0438645456
N        0.8406285756   -0.6261952196    0.1119008447
N       -1.2713518953    0.3860390766   -0.3191432695
O       -0.2583758624   -3.0971891742    0.0156643595
H       -1.9055179008   -8.0648491773    0.5480835419
H        0.5134627620   -7.5119399456    0.2665658579
H       -3.5817520430   -6.2256133360    0.5807894921
H        1.2281640051   -5.1339263396    0.0222986632
H       -2.8802728284   -3.8811615913    0.3378913617
H        1.1319218201    2.6582271600   -0.9960665385
H       -1.3136223010    2.2829055743   -1.2705835258
H        2.4588290436    0.5807727295   -0.4130821812
H        1.7005983597    0.9932593326    1.1095660576
H       -1.8871167351   -2.1018062130   -0.7837625061
H       -1.7379910099   -2.0106328233    0.9827946954
H       -2.1609222533    0.1578744883   -0.7467733426
26   
torsion grid (0,)
C       -1.5917054752   -7.0086898283    0.4049526771
C       -0.2242239108   -6.6962595652    0.3906454773
C       -2.5260782062   -5.9762310493    0.3256455395
C        0.1984293161   -5.3729801117    0.2982711759
C       -2.1161992129   -4.6386206940    0.2323900761
C       -0.7471950513   -4.3375029514    0.2184568005
C        0.6520006357    1.7760057968   -0.6717326481
C       -0.6752795192    1.6077126739   -0.6746592364
C       -0.3749381342   -0.6849864856   -0.0584790004
C        1.5298559248    0.7014343280   -0.0732838640
C       -1.1269965274   -1.9987839097    0.0301467872
N        0.8947557321   -0.6246045665   -0.0392184883
N       -1.2374251272    0.4265972042   -0.1413249963
O       -0.2244203308   -3.0740038480    0.1313575726
H       -1.9191180856   -8.0419752301    0.4771353313
H        0.5163307922   -7.4896973401    0.4518439734
H       -3.5893514908   -6.2027158098    0.3362930026
H        1.2523676491   -5.1113413063    0.2854521742
H       -2.8663498932   -3.8578933218    0.1739154019
H        1.0917585517    2.6711405358   -1.1004195441
H       -1.3791069467    2.3294156494   -1.0768315840
H        2.4686976739    0.6106768709   -0.6315620617
H        1.8192017017    0.9624598960    0.9570978932
H       -1.7627113815   -2.1096414408   -0.8631659308
H       -1.7921489706   -1.9588268572    0.9066200990
H       -2.1896985058    0.2273793164   -0.4246020930
26   
torsion grid (15,)
C       -1.5914714758   -7.0018727379    0.3775750958
C       -0.2308188270   -6.6857964972    0.5062108076
C       -2.5140833224   -5.9720325834    0.1945079921
C        0.1974256110   -5.3622135414    0.4515837557
C       -2.0989818544   -4.6339773971    0.1382296123
C       -0.7366790727   -4.3296831196    0.2670226935
C        0.6436370858    1.7850511847   -0.6991927096
C       -0.6766621917    1.6296428374   -0.5443039571
C       -0.3344292763   -0.6859242222   -0.0543905950
C        1.5667423135    0.6881349682   -0.2208595453
C       -1.0977020896   -1.9936120919    0.0095012438
N        0.9281613328   -0.6377657635   -0.1994402798
N       -1.1761452836    0.4399723185    0.0294362635
O       -0.2107847432   -3.0651169853    0.2314271667
H       -1.9226043589   -8.0356263296    0.4200262147
H        0.5006364561   -7.4772088180    0.6487972485
H       -3.5720989155   -6.2009741364    0.0937901075
H        1.2466161766   -5.0984628412    0.5467818021
H       -2.8401413161   -3.8551170623   -0.0024042962
H        1.0410094316    2.6787990841   -1.1698107127
H       -1.4178191479    2.3619987719   -0.8480417578
H        2.4573213935    0.6235518432   -0.8555240931
H        1.9348229573    0.9035513672    0.7949130821
H       -1.6429523103   -2.1315533006   -0.9374445660
H       -1.8433096401   -1.9287866548    0.8174750905
H       -2.1673861170    0.2688501902   -0.0903322235
26   
torsion grid (30,)
C       -1.5876687908   -7.0068582101    0.3724522122
C       -0.2507895762   -6.6757536235    0.6387454533
C       -2.4933491948   -5.9889168304    0.0742519213
C        0.1708164172   -5.3492993137    0.6061503221
C       -2.0845295827   -4.6482434952    0.0389272496
C       -0.7459017469   -4.3285290753    0.3053124211
C        0.6323654300    1.7969494837   -0.6763517610
C       -0.6636557016    1.6524774965   -0.3734814949
C       -0.3215723154   -0.6965034414   -0.0832990942
C        1.5783823158    0.6563984508   -0.3771454362
C       -1.0943739240   -1.9997561804   -0.0454197666
N        0.9143915133   -0.6575031389   -0.3845317693
N       -1.1161954364    0.4339288197    0.1759621074
O       -0.2299359649   -3.0594452511    0.3043479639
H       -1.9135141656   -8.0428482811    0.3977388599
H        0.4675808030   -7.4577339889    0.8714640421
H       -3.5329298474   -6.2293713475   -0.1341106090
H        1.2024684252   -5.0748310133    0.8056473007
H       -2.8123706674   -3.8787440750   -0.1930631275
H        0.9911663717    2.7108075629   -1.1393140091
H       -1.4196284097    2.4129564687   -0.5409159393
H        2.3958644828    0.6263585101   -1.1054991173
H        2.0541657205    0.7925377620    0.6071653712
H       -1.5406013509   -2.1736129254   -1.0360342048
H       -1.9143934080   -1.9160925951    0.6843687624
H       -2.1180783679    0.2906867233    0.1998243437
26   
torsion grid (45,)
C       -1.5799988270   -7.0111926632    0.4060405610
C       -0.2833224963   -6.6498591852    0.8007051823
C       -2.4595088969   -6.0193388148   -0.0277259782
C        0.1245892243   -5.3192785237    0.7608939358
C       -2.0645597147   -4.6748307275   -0.0721281285
C       -0.7658750683   -4.3251182944    0.3231388937
C        0.6208305069    1.8152484741   -0.6091718163
C       -0.6329230692    1.6638924799   -0.1644620416
C       -0.3346496469   -0.7096378999   -0.1649746090
C        1.5594729193    0.6309491322   -0.5568112993
C       -1.1070710252   -2.0143519254   -0.1542709773
N        0.8558786839   -0.6605433582   -0.6160441565
N       -1.0579798519    0.4007127259    0.2963495062
O       -0.2679512874   -3.0487147873    0.3266690767
H       -1.8951041855   -8.0503460674    0.4371142762
H        0.4145767797   -7.4113213576    1.1395652239
H       -3.4677193197   -6.2835962427   -0.3369703620
H        1.1260691462   -5.0222968238    1.0581029276
H       -2.7712075218   -3.9259610808   -0.4119893560
H        0.9504970391    2.7685280407   -1.0103108496
H       -1.3770158286    2.4538081951   -0.1518271863
H        2.2755580363    0.6645880411   -1.3850299299
H        2.1619714518    0.6506097628    0.3654081442
H       -1.4424641575   -2.2338769408   -1.1772034164
H       -1.9972485164   -1.9214663438    0.4854707852
H       -2.0508154211    0.2745442793    0.4435751652
26   
torsion grid (60,)
C       -1.5787044484   -6.9980423074    0.4624636486
C       -0.3338888583   -6.5952325610    0.9681193606
C       -2.4189093033   -6.0432637663   -0.1101984612
C        0.0620752574   -5.2620057089    0.9016469950
C       -2.0357316559   -4.6966585374   -0.1837757446
C       -0.7890139079   -4.3055662443    0.3239346247
C        0.6207676428    1.8328439656   -0.5139439200
C       -0.5692541397    1.6452699828    0.0703947564
C       -0.3546661500   -0.7121494737   -0.2743121591
C        1.5182031418    0.6371687455   -0.7426708265
C       -1.1166819308   -2.0219932518   -0.2950895035
N        0.7702484343   -0.6239513157   -0.8691061373
N       -0.9771050335    0.3396960731    0.4108488494
O       -0.3082007395   -3.0222806991    0.3100244244
H       -1.8838633627   -8.0393034074    0.5151166880
H        0.3337015560   -7.3270445869    1.4158506896
H       -3.3866217981   -6.3388496323   -0.5077990715
H        1.0244155088   -4.9352021580    1.2846355033
H       -2.7104674143   -3.9779603611   -0.6350944079
H        0.9275624332    2.8254045002   -0.8286004600
H       -1.2775926409    2.4393472476    0.2836063766
H        2.1187907478    0.7682522241   -1.6493291918
H        2.2382151136    0.5251714502    0.0838642230
H       -1.3329725742   -2.2855628505   -1.3376543426
H       -2.0692446079   -1.9297520545    0.2458519371
H       -1.9441004496    0.2103183113    0.6762580661
26   
torsion grid (75,)
C       -1.6029675900   -6.9793263860    0.5357328638
C       -0.4221212254   -6.5331514127    1.1470786299
C       -2.3815310108   -6.0716896586   -0.1825155267
C       -0.0294692341   -5.2013906094    1.0412607771
C       -2.0003181894   -4.7275810567   -0.2979449959
C       -0.8184269000   -4.2924057728    0.3172776351
C        0.6115233059    1.8280575605   -0.4074337373
C       -0.4905056274    1.5621821855    0.3048124158
C       -0.3727964605   -0.7251880485   -0.3848593338
C        1.4421089268    0.6781253884   -0.9324770757
C       -1.1133318485   -2.0436017396   -0.4446054950
N        0.6666382622   -0.5599978929   -1.1078444860
N       -0.8811813847    0.2239648104    0.5095133703
O       -0.3451201883   -3.0065419135    0.2734214084
H       -1.9067097486   -8.0189625879    0.6192054759
H        0.1967387996   -7.2283543540    1.7087255837
H       -3.2982384747   -6.4030633377   -0.6639087515
H        0.8834367366   -4.8402883108    1.5058839900
H       -2.6236161176   -4.0462193317   -0.8659855854
H        0.8974414833    2.8549965756   -0.6121829765
H       -1.1415348447    2.3205767925    0.7275893732
H        1.8966144171    0.9336421806   -1.8961447608
H        2.2808328546    0.4586639527   -0.2523480485
H       -1.2080055174   -2.3394330461   -1.4949542928
H       -2.1178267871   -1.9604166767   -0.0063276338
H       -1.8082413629    0.0606358019    0.8780263080
26   
torsion grid (90,)
C       -1.6427068603   -6.9541729945    0.5918642277
C       -0.5283646911   -6.4725056413    1.2940952898
C       -2.3464087987   -6.0861227793   -0.2432288629
C       -0.1282049939   -5.1450190827    1.1634508036
C       -1.9567697097   -4.7471406613   -0.3861019532
C       -0.8424941605   -4.2765992936    0.3220276308
C        0.5867569610    1.8302536239   -0.3296034180
C       -0.4057856172    1.4581799806    0.4881035997
C       -0.3567658866   -0.7361128782   -0.4636644902
C        1.3496640112    0.7689631609   -1.0911711262
C       -1.0745838537   -2.0621486146   -0.5618865243
N        0.5803807986   -0.4697465004   -1.2907234505
N       -0.7540549339    0.0970236318    0.5869289785
O       -0.3680812467   -2.9911504875    0.2615541355
H       -1.9526623472   -7.9901860671    0.6952449152
H        0.0323944254   -7.1363885428    1.9471853374
H       -3.2102755843   -6.4455079020   -0.7967773930
H        0.7337225912   -4.7571332244    1.6985987178
H       -2.5190933897   -4.0978334897   -1.0475725805
H        0.8353003719    2.8801787672   -0.4482473592
H       -0.9989816620    2.1478262537    1.0799298162
H        1.6570254146    1.1399513627   -2.0754448880
H        2.2811291843    0.5040416234   -0.5654553868
H       -1.0547074526   -2.3832174257   -1.6078216002
H       -2.1186761656   -1.9821701900   -0.2273033526
H       -1.6197630122   -0.1325991917    1.0556726900
26   
torsion grid (105,)
C       -1.9829621333   -6.9873397117    0.1750129325
C       -2.0722001972   -6.3468511804   -1.0693473870
C       -1.5622569218   -6.2586482360    1.2878724753
C       -1.7424759348   -4.9995963816   -1.1960151688
C       -1.2275381724   -4.9020511665    1.1766077627
C       -1.3176820956   -4.2726690903   -0.0721896380
C        0.6600764343    1.6967813548   -0.4057255825
C        1.4260853664    0.6309783480   -0.6695857030
C       -0.2380137258   -0.7935492090    0.2903183008
C       -0.7826558456    1.4847460147   -0.0027890809
C       -0.5224435915   -2.1858737222    0.8001494872
N       -1.0369363886    0.1596514773    0.5866711207
N        0.8948699997   -0.6636428825   -0.5167985434
O       -1.0167040649   -2.9534269294   -0.3002368689
H       -2.2408862918   -8.0381022351    0.2718896980
H       -2.4007061779   -6.9005329050   -1.9452740839
H       -1.4923840982   -6.7411500990    2.2595234513
H       -1.8076756135   -4.4875197029   -2.1517050636
H       -0.9117943104   -4.3579757608    2.0595877203
H        1.0698348346    2.6991785216   -0.4794978753
H        2.4647023987    0.6882879382   -0.9790519750
H       -1.1013904914    2.2435179269    0.7209157115
H       -1.4515267267    1.5987744045   -0.8710203366
H       -1.2742404989   -2.1073578799    1.5902438432
H        0.3861091663   -2.6545070502    1.2058477594
H        1.5337800581   -1.4463899201   -0.5475520205
26   
torsion grid (120,)
C       -1.9068539243   -7.0109616674    0.1828366965
C       -1.9074951232   -6.4008777547   -1.0796823842
C       -1.6053922024   -6.2438115668    1.3085641892
C       -1.6078409416   -5.0469212390   -1.2115832036
C       -1.3026422326   -4.8801842057    1.1925119804
C       -1.3026206785   -4.2820963806   -0.0745304900
C        0.7060930268    1.6666027555   -0.3972524980
C        1.3328741830    0.5533864063   -0.7987438144
C       -0.3334116538   -0.7680685214    0.2925336321
C       -0.6966395369    1.5592872363    0.1600041990
C       -0.6457314960   -2.1509280101    0.8101809301
N       -1.0059324305    0.2319300933    0.7196756375
N        0.7019035560   -0.6936703071   -0.6396277459
O       -1.0227806307   -2.9582510283   -0.3081821232
H       -2.1410002672   -8.0669152184    0.2835974465
H       -2.1433200475   -6.9838225796   -1.9663696082
H       -1.6054543261   -6.7016868587    2.2944879058
H       -1.6068196333   -4.5590086506   -2.1820739626
H       -1.0811549691   -4.3063993476    2.0852377161
H        1.1987588229    2.6310741413   -0.4688203336
H        2.3312442339    0.5347563224   -1.2239171946
H       -0.8627662406    2.3050931794    0.9456446332
H       -1.4438663996    1.7744857603   -0.6207499538
H       -1.4632262660   -2.0649458069    1.5309226847
H        0.2339101860   -2.5871693734    1.3056540665
H        1.2317568568   -1.5357262445   -0.8183975597
26   
torsion grid (135,)
C       -1.8387237015   -7.0089589774    0.1851155832
C       -1.7400149091   -6.4292271086   -1.0876607970
C       -1.6563812745   -6.2073104480    1.3124419049
C       -1.4601448331   -5.0718419557   -1.2289093995
C       -1.3750754529   -4.8399423564    1.1878919314
C       -1.2748659058   -4.2735092484   -0.0894298578
C        0.7946148799    1.6315322403   -0.4170606083
C        1.2587909984    0.4899960468   -0.9419093588
C       -0.3925638044   -0.7312144527    0.2758783967
C       -0.5396220639    1.6224186790    0.2972443266
C       -0.7425983862   -2.1054092716    0.7941898556
N       -0.9150414004    0.2983672161    0.8247108392
N        0.5328763142   -0.7006606021   -0.7644042712
O       -1.0047573345   -2.9483118966   -0.3305902847
H       -2.0571751601   -8.0676362962    0.2922940070
H       -1.8826614894   -7.0391087830   -1.9760515718
H       -1.7341149265   -6.6409157894    2.3061924370
H       -1.3845387338   -4.6081144531   -2.2083552096
H       -1.2466088993   -4.2391481803    2.0810398180
H        1.3679813350    2.5491636662   -0.5029379425
H        2.1943809087    0.4044261426   -1.4852372140
H       -0.5398702009    2.3323281792    1.1322936848
H       -1.3446674419    1.9541302469   -0.3781033330
H       -1.6197676727   -2.0147150423    1.4400192442
H        0.0968187546   -2.5117126285    1.3768421982
H        0.9330784254   -1.5806990557   -1.0599865070
26   
torsion grid (150,)
C       -1.7875456361   -7.0194365312    0.1974112703
C       -1.5848797895   -6.4696458742   -1.0762148245
C       -1.7200999328   -6.1886753876    1.3163962866
C       -1.3162236062   -5.1107767296   -1.2252699200
C       -1.4513916671   -4.8197491974    1.1824575766
C       -1.2465300363   -4.2822634626   -0.0946785947
C        0.8345923150    1.5951030250   -0.4350290847
C        1.1423926758    0.4550884017   -1.0673521209
C       -0.4560908412   -0.7081564174    0.2671411759
C       -0.4050121446    1.6438400044    0.4318142731
C       -0.8381468490   -2.0800765955    0.7760575277
N       -0.8242639153    0.3212977221    0.9290053464
N        0.3476244706   -0.6872706346   -0.8679821814
O       -0.9764440354   -2.9580250222   -0.3432040437
H       -1.9972658205   -8.0791076434    0.3116210587
H       -1.6374385332   -7.1030860756   -1.9579846817
H       -1.8789865617   -6.6000521328    2.3099176517
H       -1.1615682111   -4.6696672925   -2.2059064502
H       -1.4120694230   -4.1957196964    2.0679321072
H        1.4666760397    2.4709658718   -0.5428604167
H        1.9997588906    0.3328055640   -1.7214337158
H       -0.2486724801    2.2974991737    1.2977103391
H       -1.2509289856    2.0802072194   -0.1234898243
H       -1.7720042462   -1.9973588478    1.3382514223
H       -0.0485845611   -2.4499345865    1.4450573865
H        0.6452932252   -1.5804561804   -1.2371715138
26   
torsion grid (165,)
C       -1.7611616883   -7.0208607488    0.2117934526
C       -1.4340032406   -6.4995385849   -1.0477276698
C       -1.8082230304   -6.1640345811    1.3120535678
C       -1.1563893792   -5.1430449998   -1.2018362634
C       -1.5321512221   -4.7971171099    1.1736812180
C       -1.2031413595   -4.2890890804   -0.0893460899
C        0.8489466914    1.5745655255   -0.4654758024
C        1.0027791171    0.4594501534   -1.1915364853
C       -0.4845525588   -0.6896867409    0.2716616284
C       -0.2649226325    1.6400165632    0.5568743277
C       -0.9048721243   -2.0612880472    0.7629097468
N       -0.6932406169    0.3138363895    1.0344929061
N        0.1682547226   -0.6473636909   -0.9545374058
O       -0.9141649515   -2.9692731807   -0.3394896609
H       -1.9774157203   -8.0788139907    0.3295071978
H       -1.3957990624   -7.1536134026   -1.9150095423
H       -2.0632815591   -6.5533235824    2.2943397578
H       -0.9053777260   -4.7248641479   -2.1725975859
H       -1.5811451376   -4.1527087181    2.0439108219
H        1.5186446821    2.4172703307   -0.6059649862
H        1.7643535386    0.3282322033   -1.9535438168
H        0.0406034168    2.2326166078    1.4269398359
H       -1.1461236308    2.1536304095    0.1393696573
H       -1.8954948376   -1.9863510053    1.2205205530
H       -0.1892142127   -2.3982753748    1.5236816553
H        0.3781043435   -1.5375031283   -1.3867859960
26   
torsion grid (180,)
C       -1.7772631591   -7.0263739137    0.2096380161
C       -1.2879385231   -6.5342433619   -1.0082850519
C       -1.9419763665   -6.1473705478    1.2806386926
C       -0.9685051939   -5.1855035842   -1.1495679236
C       -1.6251430662   -4.7881851327    1.1539220148
C       -1.1356998736   -4.3082209631   -0.0673484054
C        0.8169748590    1.5693888328   -0.5203987958
C        0.8191044045    0.4897588311   -1.3130384285
C       -0.4649506898   -0.6950138240    0.3032207163
C       -0.1208791045    1.6089066150    0.6665624352
C       -0.9238269106   -2.0645998664    0.7706984319
N       -0.5123112918    0.2701605768    1.1391479912
N       -0.0084691945   -0.6059878269   -1.0059515601
O       -0.7940725509   -2.9980647800   -0.3016497002
H       -2.0257486682   -8.0782289820    0.3180107337
H       -1.1544910317   -7.2052950478   -1.8528714018
H       -2.3214558182   -6.5133465371    2.2311753159
H       -0.5898077276   -4.7918876115   -2.0886461894
H       -1.7644797963   -4.1277544142    2.0019646409
H        1.4847318240    2.4007716425   -0.7239250638
H        1.4510046432    0.3782491338   -2.1883021099
H        0.3378359668    2.1452792297    1.5052590032
H       -1.0378819142    2.1683576187    0.4191983646
H       -1.9674306656   -1.9984974903    1.0961779111
H       -0.3090965133   -2.3665574882    1.6257609925
H        0.1314383482   -1.4840677985   -1.4889247098
