19   
torsion grid (-165,)
C        5.4576089549    0.6438814515    0.7416526193
C        4.5958538313   -0.4894766749    0.7632604488
C        4.7675204161    1.8262522251    0.6240113552
C        3.2620838754   -0.1687048434    0.6308993163
C        2.1717822157   -1.1759287926    0.7872546136
C        0.5940287830    0.0210900191   -0.7654104958
C       -0.1642776146   -1.8073141422    0.7021620238
N        0.9026236701   -0.8764163274    0.3454226417
O        2.4190042252   -2.2346793406    1.3739962824
S        3.0622958770    1.5674017792    0.5245161069
H        6.5384434914    0.5902224589    0.8198523954
H        4.9192142972   -1.5163018930    0.8908682206
H        5.1629343019    2.8339918416    0.5905284133
H        1.5012062611    0.3543465009   -1.2665179143
H       -0.0126488594   -0.5170488079   -1.5032716450
H        0.0289572173    0.8999718096   -0.4319881063
H       -1.1086666701   -1.2571182454    0.7593797330
H        0.0556213192   -2.2609976146    1.6675114711
H       -0.2657953094   -2.6090623746   -0.0417924529
19   
torsion grid (-150,)
C        5.4550435355    0.6615314959    0.6009982268
C        4.6003603150   -0.4791767379    0.6349154856
C        4.7596025703    1.8426347314    0.6928711960
C        3.2655045562   -0.1560410401    0.7247438357
C        2.1724391416   -1.1569126931    0.8996076933
C        0.6989338999   -0.0394241414   -0.7999099501
C       -0.1594764321   -1.7874311923    0.7080728274
N        0.9305901036   -0.8749927984    0.3760689344
O        2.3922552486   -2.1855840146    1.5453796992
S        3.0543597587    1.5768376545    0.8074423590
H        6.5361454652    0.6115714097    0.5236715665
H        4.9377680651   -1.5095098506    0.6124961998
H        5.1514097060    2.8520256823    0.7123890983
H        1.6356719684    0.3482778385   -1.1952662137
H        0.2248912181   -0.6412597435   -1.5855025080
H        0.0382019061    0.8038196277   -0.5663081364
H       -1.1023926657   -1.2315706121    0.6984020292
H        0.0083647200   -2.2102330097    1.6976224746
H       -0.2279969538   -2.6121917011   -0.0141945913
19   
torsion grid (-135,)
C        5.4087851074    0.6649197858    0.4945392816
C        4.5530970694   -0.4770421588    0.5465973066
C        4.7400800959    1.8362885207    0.7504411997
C        3.2445017509   -0.1581101071    0.8210180088
C        2.1380090466   -1.1440357054    1.0168675000
C        0.7863946794   -0.0802539627   -0.8101662881
C       -0.1767773465   -1.7895751273    0.6860646170
N        0.9398432486   -0.8978869784    0.3896114841
O        2.3123527759   -2.1251310006    1.7439118225
S        3.0554542771    1.5628839870    1.0428323419
H        6.4729970235    0.6196968993    0.2877453208
H        4.8791088983   -1.5015721659    0.4030143205
H        5.1413401886    2.8408118881    0.8003167445
H        1.7441889208    0.3263040511   -1.1286688490
H        0.3910534391   -0.6989645181   -1.6257393227
H        0.0906135592    0.7495083555   -0.6381176427
H       -1.1131731856   -1.2297781883    0.5970645298
H       -0.0734276349   -2.1763267367    1.6990219790
H       -0.2060925681   -2.6396727626   -0.0087294660
19   
torsion grid (-120,)
C        4.8762168655    1.5388093450   -0.0671725751
C        3.6995218719    1.0774884220   -0.7359968949
C        5.2624514370    0.7079721726    0.9538516436
C        3.2042765410   -0.0888811970   -0.2071123825
C        2.0153362333   -0.8534328488   -0.7062025193
C        0.7726731144   -0.2639217998    1.3922136418
C       -0.1561013293   -1.8545111296   -0.2521015473
N        0.9715995541   -1.0301011425    0.1674874819
O        2.0056645726   -1.3003956753   -1.8549865847
S        4.1898777589   -0.6437497287    1.1192676560
H        5.4160547535    2.4402333438   -0.3381871487
H        3.2363928721    1.5759797312   -1.5810211232
H        6.1254442637    0.7962572409    1.6017794539
H        0.7798275479   -0.9183135204    2.2723801688
H        1.5499797890    0.4885968331    1.5089483671
H       -0.1971718998    0.2475676628    1.3507944494
H       -0.4940368384   -2.4643314602    0.5927412631
H        0.1563995047   -2.4992929655   -1.0720341978
H       -0.9946291505   -1.2330905202   -0.5933642158
19   
torsion grid (-105,)
C        4.8640000105    1.6056824904    0.0661957457
C        3.7092551395    1.1089366934   -0.6183080579
C        5.3298979353    0.7337080289    1.0161260275
C        3.3154193713   -0.1281378962   -0.1739620762
C        2.1800007770   -0.9600543361   -0.7004557659
C        0.8260773610   -0.2401732633    1.2838988562
C       -0.0605665385   -1.8623639342   -0.3551907767
N        1.0473572621   -1.0151572839    0.0700981101
O        2.2889966825   -1.5481847035   -1.7777040155
S        4.3637703859   -0.7051302105    1.0902019151
H        5.3303944094    2.5625957947   -0.1442838814
H        3.1922379711    1.6383130389   -1.4120078699
H        6.1923619394    0.8398154152    1.6619524221
H        0.7825845876   -0.8935568588    2.1645627410
H        1.6214662115    0.4886431997    1.4270871820
H       -0.1266731072    0.2975986322    1.2075172800
H       -0.3583002749   -2.5261472273    0.4651123137
H        0.2554359352   -2.4558648100   -1.2114948299
H       -0.9263175691   -1.2516264443   -0.6408916849
19   
torsion grid (-90,)
C        4.7980649692    1.6593113146    0.0878065863
C        3.6059700034    1.1435391731   -0.5140071290
C        5.4106621943    0.7471579885    0.9076657499
C        3.3333430426   -0.1477264808   -0.1374521613
C        2.2291940272   -1.0356974085   -0.6419818535
C        0.7895436172   -0.1696590717    1.2190554758
C       -0.0691038020   -1.8213379733   -0.4030926705
N        1.0401507416   -0.9841616919    0.0380714957
O        2.4155219005   -1.7618239578   -1.6194389071
S        4.5472163336   -0.7566728434    0.9480828130
H        5.1835007424    2.6586623398   -0.0861216172
H        2.9773999241    1.7012575093   -1.2009273568
H        6.3219627989    0.8626992604    1.4806461389
H        0.5332905265   -0.8082207258    2.0739578233
H        1.6680248047    0.4198213750    1.4736837808
H       -0.0497385144    0.5133584901    1.0375746540
H       -0.3488768512   -2.5292027176    0.3870385134
H        0.2351135671   -2.3725425085   -1.2912683474
H       -0.9418051784   -1.2000533678   -0.6381141131
19   
torsion grid (-75,)
C        4.7788656474    1.6873943311    0.1766392577
C        3.5492699670    1.1437920352   -0.3106977368
C        5.5433806801    0.7524801883    0.8276870334
C        3.3976492712   -0.1894673336   -0.0134495257
C        2.3321538992   -1.1282010775   -0.5000180808
C        0.7692727645   -0.1267996335    1.1877851509
C       -0.0009467298   -1.8345786751   -0.4209981011
N        1.0886320050   -0.9947098500    0.0623854899
O        2.5944421290   -1.9734123381   -1.3578710463
S        4.7842006533   -0.8044610434    0.8352835257
H        5.0818082974    2.7210941432    0.0458227141
H        2.8070664425    1.7118969082   -0.8629024432
H        6.5070956790    0.8866652253    1.3025848603
H        0.3130961107   -0.7171444858    1.9921091162
H        1.6686759202    0.3496771153    1.5729905997
H        0.0572078772    0.6535475770    0.8899182998
H       -0.2957560266   -2.5626345304    0.3455396322
H        0.3298078022   -2.3686005034   -1.3102314868
H       -0.8712172566   -1.2136913652   -0.6640352132
19   
torsion grid (-60,)
C        4.7523825453    1.6290702234    0.2211883058
C        3.4915646950    1.0788243246   -0.1617439829
C        5.6186160162    0.6716714626    0.6896906557
C        3.4173762726   -0.2822151491    0.0315871963
C        2.3537183204   -1.2338659447   -0.4161005078
C        0.7271797548   -0.0958939751    1.1240404481
C       -0.0040256468   -1.8474845082   -0.4544080165
N        1.0807703685   -1.0116869398    0.0472189800
O        2.6361383245   -2.1716571076   -1.1666041239
S        4.9199296495   -0.9095317822    0.6420824818
H        5.0056165477    2.6816719333    0.1485724711
H        2.6727765014    1.6611392144   -0.5727465985
H        6.6264584147    0.8073661469    1.0616870793
H        0.1411691549   -0.6324058785    1.8802094725
H        1.6208099682    0.3035068693    1.5997057143
H        0.1204337057    0.7401470572    0.7524888932
H       -0.3283100614   -2.5651324056    0.3104780224
H        0.3432300329   -2.3970070906   -1.3277422941
H       -0.8593044880   -1.2186250907   -0.7271453689
19   
torsion grid (-45,)
C        4.7267328020    1.5406343449    0.2574558047
C        3.4411401712    0.9987920394   -0.0393890623
C        5.6414646975    0.5652465382    0.5761460700
C        3.3976636013   -0.3751855313    0.0639154788
C        2.3156081471   -1.3302323851   -0.3091383203
C        0.6637451076   -0.0510043380    1.0919692452
C       -0.0544475512   -1.8588054344   -0.4255308002
N        1.0299835170   -1.0104992227    0.0571192559
O        2.5867023302   -2.3578813416   -0.9389991792
S        4.9579156990   -1.0184600694    0.4877987969
H        4.9633593132    2.5992819203    0.2316396510
H        2.5864411230    1.5972059076   -0.3373612566
H        6.6801647633    0.6926662562    0.8547834625
H        0.0021722883   -0.5380130468    1.8186755399
H        1.5462918208    0.3052281981    1.6198848395
H        0.1299778189    0.8106963173    0.6704802106
H       -0.3628352443   -2.5814166172    0.3418252156
H        0.2811878521   -2.4074685960   -1.3040202799
H       -0.9160985539   -1.2339894600   -0.6845342260
19   
torsion grid (-30,)
C        4.7543849942    1.5208490546    0.3094219699
C        3.4549714506    0.9855725101    0.0725055013
C        5.6985706551    0.5359919180    0.4838049800
C        3.4322411833   -0.3944078723    0.0682558802
C        2.3432301021   -1.3611695877   -0.2359295531
C        0.6468382609   -0.0089523343    1.0368699593
C       -0.0188055928   -1.8707290141   -0.4351185864
N        1.0457130450   -0.9859715203    0.0288247748
O        2.6158190627   -2.4484433060   -0.7575514628
S        5.0256094554   -1.0456539465    0.3325995507
H        4.9796917698    2.5817615190    0.3437473407
H        2.5803004766    1.5969016466   -0.1198578233
H        6.7554818149    0.6587567816    0.6858775106
H       -0.0587969169   -0.4771394956    1.7337989497
H        1.5071632883    0.3334437894    1.6089335541
H        0.1511084100    0.8591976365    0.5837171089
H       -0.2986885309   -2.6001210313    0.3370276262
H        0.3190893443   -2.4144233392   -1.3160005345
H       -0.8982846127   -1.2690423595   -0.6863832770
19   
torsion grid (-15,)
C        4.7697098709    1.5455019285    0.3822229584
C        3.4585276643    1.0160722419    0.2096814691
C        5.7331494172    0.5636674099    0.3696422412
C        3.4453506173   -0.3573244139    0.0578413658
C        2.3617708259   -1.3467652465   -0.1826095832
C        0.6108070291    0.0503121372    0.9601714483
C        0.0181111112   -1.9049760455   -0.4234610135
N        1.0521623605   -0.9703372600    0.0138944420
O        2.6538046253   -2.4649303988   -0.6254169610
S        5.0626602106   -1.0061721142    0.1276737178
H        4.9880753339    2.6013818489    0.5047333090
H        2.5731518375    1.6377341614    0.1557795207
H        6.8036782169    0.6858486175    0.4800928231
H       -0.1875534848   -0.3648619295    1.5852237269
H        1.4242430768    0.3508371406    1.6190532375
H        0.2147701377    0.9380522854    0.4501489708
H       -0.2463197412   -2.6149316589    0.3718233668
H        0.3781056687   -2.4698759356   -1.2820099952
H       -0.8753792936   -1.3382395401   -0.7034113053
19   
torsion grid (0,)
C        4.8238782124    1.5216322210    0.5020778448
C        3.5001869286    0.9975169182    0.4577639737
C        5.7661055949    0.5904456500    0.1338803580
C        3.4503490982   -0.3228450843    0.0449715114
C        2.3818696378   -1.3405347987   -0.1643132335
C        0.5930648761    0.1224000489    0.8282664348
C        0.0562943638   -2.0309576928   -0.2783650991
N        1.0644278680   -1.0319841614    0.0726399123
O        2.7121691727   -2.4492146665   -0.6103558791
S        5.0598458768   -0.9262228199   -0.2757481432
H        5.0621925661    2.5400944970    0.7913875140
H        2.6359434656    1.6003454049    0.6967445297
H        6.8396778145    0.7236021623    0.0778643519
H       -0.4147648804   -0.0915188332    1.1901266436
H        1.2213442255    0.3123760064    1.7016499736
H        0.5424666816    1.0297660357    0.2136220031
H       -0.2916553054   -2.5732486346    0.6106357556
H        0.4901472112   -2.7463109984   -0.9741852780
H       -0.7997875990   -1.5339307968   -0.7465641670
19   
torsion grid (15,)
C        4.8203147225    1.2986400876    0.8252784569
C        3.5449248294    0.6675563954    0.8915303747
C        5.6187845803    0.7566337161   -0.1550358574
C        3.3966955880   -0.3510194739   -0.0303901180
C        2.2977222379   -1.3080943147   -0.3253449651
C        0.5016481847    0.2554341043    0.4832757076
C        0.0498418468   -2.1301229673    0.0403859951
N        1.0420240025   -1.0677476666    0.1850929007
O        2.5503135916   -2.3392867053   -0.9614408545
S        4.8411593409   -0.5358681381   -0.9900932498
H        5.1317304628    2.1103856787    1.4746359188
H        2.7924610933    0.9323403096    1.6242929544
H        6.6284722885    1.0451214460   -0.4204946842
H       -0.4820912396    0.3529687404    0.0109542117
H        0.3765758809    0.4136689014    1.5623648218
H        1.1412962449    1.0391861204    0.0798152113
H       -0.6588601299   -2.0676735052    0.8720468530
H        0.5485754716   -3.0980602870    0.0553220854
H       -0.5026753018   -2.0402472082   -0.9046556523
19   
torsion grid (30,)
C        4.7908827962    1.2795257411    0.8420126754
C        3.5535969326    0.5813814900    0.9553660430
C        5.5163851281    0.8769826688   -0.2550030365
C        3.3593946749   -0.3401438132   -0.0535666829
C        2.2868093920   -1.3467530013   -0.2756946010
C        0.4854970506    0.2686617407    0.4110810079
C        0.0312294566   -2.1377626458    0.1292501103
N        1.0251852714   -1.0708351510    0.2003262934
O        2.5554685767   -2.4172142039   -0.8328990056
S        4.7192496012   -0.3707578156   -1.1410640896
H        5.1292168128    2.0377979591    1.5406052507
H        2.8522403854    0.7317823847    1.7685454768
H        6.4808291109    1.2442553814   -0.5835219642
H       -0.4398898280    0.3799388867   -0.1669378837
H        0.2492938336    0.4469767756    1.4680454505
H        1.1870195426    1.0286850220    0.0721291981
H       -0.6625015835   -2.0350217208    0.9699353711
H        0.5311014421   -3.1038218891    0.1805640275
H       -0.5399527089   -2.0917681396   -0.8078661347
19   
torsion grid (45,)
C        4.7741348243    1.2903299310    0.9246194606
C        3.5676578062    0.5413915364    1.0584211987
C        5.4387046441    1.0015994780   -0.2435900388
C        3.3326282089   -0.2981885484   -0.0094473955
C        2.2920905805   -1.3503971326   -0.1896968324
C        0.4794689126    0.3079736648    0.3510214689
C        0.0048633132   -2.1042581347    0.1415844902
N        1.0033540497   -1.0409806291    0.1739423061
O        2.6036472036   -2.4591340404   -0.6367813538
S        4.6231444579   -0.2042685366   -1.1729461328
H        5.1337308849    2.0040522172    1.6585768854
H        2.9087792344    0.6041359037    1.9182688818
H        6.3649001531    1.4304783824   -0.6055218770
H       -0.4139562076    0.4334607853   -0.2726541499
H        0.1945666651    0.4949702117    1.3945735711
H        1.2138804984    1.0516962453    0.0476904345
H       -0.6700497249   -1.9941025585    0.9972851703
H        0.5054020355   -3.0700633358    0.1880814132
H       -0.5886800608   -2.0617823023   -0.7814492750
19   
torsion grid (60,)
C        4.8206113263    1.3263642267    1.0049435552
C        3.6615398125    0.5108072844    1.1795706642
C        5.3991309625    1.1529023395   -0.2286402587
C        3.3734020433   -0.2586168671    0.0749256933
C        2.3722779093   -1.3616897372   -0.0610969751
C        0.5272108942    0.3094870058    0.2799445820
C        0.0643639512   -2.1120608950    0.1564358381
N        1.0567095962   -1.0434094466    0.1678660552
O        2.7397071208   -2.4983436586   -0.3700339964
S        4.5579619754   -0.0239383313   -1.1763208229
H        5.2082925837    2.0043536789    1.7582122704
H        3.0669970979    0.4843508740    2.0874459947
H        6.2704181657    1.6521172350   -0.6338392026
H       -0.3072500096    0.4328841991   -0.4211324327
H        0.1536116828    0.5081442371    1.2929200524
H        1.2925327581    1.0443873132    0.0379839380
H       -0.5951952642   -2.0135313051    1.0263155410
H        0.5746406772   -3.0732642653    0.1874031879
H       -0.5483493436   -2.0645773952   -0.7532496066
19   
torsion grid (75,)
C        4.8649344369    1.3362895644    1.0687837955
C        3.7659186785    0.4520800866    1.3038131811
C        5.2979447495    1.2993808087   -0.2325813113
C        3.3782891588   -0.2323464995    0.1767643129
C        2.3879924774   -1.3557471671    0.0741168512
C        0.5455629028    0.3418876162    0.2064280876
C        0.0595754054   -2.0784153634    0.1436388831
N        1.0618732227   -1.0196409971    0.1684414190
O        2.7775425452   -2.5126936957   -0.0956278360
S        4.3863929339    0.1717930529   -1.1802541230
H        5.3140014678    1.9652632155    1.8304619463
H        3.2824190231    0.3218564754    2.2670430038
H        6.0982105184    1.8675796371   -0.6897517916
H       -0.1859099556    0.4824626903   -0.5990039960
H        0.0451597080    0.5437382680    1.1622319771
H        1.3507704194    1.0620681981    0.0748121530
H       -0.6261959046   -1.9631310917    0.9912059772
H        0.5604323696   -3.0431833614    0.2042949161
H       -0.5240095838   -2.0351478237   -0.7848612562
19   
torsion grid (90,)
C        4.9128644247    1.2710552967    1.0346116533
C        3.8878074417    0.3238443508    1.3529120843
C        5.1493675899    1.3576536814   -0.3129957258
C        3.3618344940   -0.2875894146    0.2424647699
C        2.3496360198   -1.3993380710    0.2002500230
C        0.5529337592    0.3468610723    0.1082434842
C        0.0017220009   -2.0600346523    0.1161463120
N        1.0308381064   -1.0279869790    0.1574349670
O        2.7189342800   -2.5744922064    0.2053560328
S        4.1310335229    0.2778296935   -1.2105199797
H        5.4520089953    1.8546682106    1.7736845971
H        3.5554882808    0.0986979899    2.3613202050
H        5.8656653182    1.9819446803   -0.8319511963
H       -0.0052282126    0.5229124565   -0.8201079298
H       -0.1170781454    0.5454089122    0.9540443065
H        1.3858020831    1.0456802942    0.1536607798
H       -0.6823300071   -1.9465201238    0.9658844931
H        0.4790090734   -3.0374809636    0.1611994225
H       -0.5793336006   -1.9805845573   -0.8110405894
19   
torsion grid (105,)
C        4.9671095180    1.2121296786    1.0529538456
C        4.0004578079    0.2236005125    1.4232690573
C        5.0392836485    1.3971799117   -0.3036282573
C        3.3523674132   -0.3212024230    0.3434202457
C        2.3194916940   -1.4126206889    0.3634678915
C        0.5589385712    0.3451655568    0.0477623232
C       -0.0190938780   -2.0563954371    0.0987327039
N        1.0178674597   -1.0331208288    0.1599153846
O        2.6555011251   -2.5815738357    0.5606879517
S        3.9261594542    0.3690242945   -1.1480245691
H        5.5850138295    1.7534392137    1.7619581148
H        3.7946651827   -0.0801240709    2.4444967235
H        5.6917257426    2.0591827722   -0.8588455432
H        0.1914287977    0.5555503236   -0.9646823507
H       -0.2621276351    0.5173492959    0.7541452920
H        1.3634920089    1.0401689083    0.2800996150
H       -0.6898246804   -1.9789081927    0.9637590634
H        0.4513263107   -3.0382626854    0.0989931650
H       -0.6128233160   -1.9310853263   -0.8144642866
19   
torsion grid (120,)
C        5.0082713874    1.0711490113    1.0821055355
C        4.0205385908    0.1147023726    1.4749769470
C        4.9895117695    1.3252485889   -0.2658705796
C        3.2605605488   -0.3344813049    0.4232768863
C        2.1771235505   -1.3683072358    0.4909372940
C        0.4747630455    0.4020809736   -0.0216827663
C       -0.1380688855   -1.9880760609    0.0675269069
N        0.9165738714   -0.9814191516    0.1098001013
O        2.4372185842   -2.5123918742    0.8690841009
S        3.7597546054    0.4079145332   -1.0727938793
H        5.7064858021    1.5408982614    1.7671394106
H        3.8767886280   -0.2401212928    2.4901046711
H        5.6397142163    1.9771117737   -0.8356710951
H        0.1557831191    0.6183542074   -1.0485472546
H       -0.3757694942    0.5801825120    0.6482506666
H        1.2722700812    1.0908700225    0.2497385118
H       -0.7661093272   -1.9405517298    0.9670043485
H        0.3126646144   -2.9775624344    0.0088203099
H       -0.7703764641   -1.8146231538   -0.8099364294
19   
torsion grid (135,)
C        5.1017530818    1.0402188203    1.0684723165
C        4.1232317522    0.0860983969    1.4821422816
C        4.9750318882    1.3849419214   -0.2543532122
C        3.2549571866   -0.2663233965    0.4764781458
C        2.1799831554   -1.2993823486    0.5862490578
C        0.4290551099    0.3670461455   -0.0879756214
C       -0.0710902751   -2.0441661676    0.0727005613
N        0.9383756868   -0.9903286278    0.0840379608
O        2.4322896901   -2.3953837707    1.0929369939
S        3.6510340626    0.5620319718   -1.0080246207
H        5.8710437113    1.4445139560    1.7181597998
H        4.0589975923   -0.3430161131    2.4762715237
H        5.5913681471    2.0611611065   -0.8335083161
H        0.1599016260    0.5606811411   -1.1331352952
H       -0.4676997891    0.5012101053    0.5300290698
H        1.1678557232    1.1020323437    0.2253140677
H       -0.6616150053   -2.0431926668    0.9987268607
H        0.4169537372   -3.0131365100   -0.0234022959
H       -0.7450604623   -1.8832261583   -0.7746739599
19   
torsion grid (150,)
C        5.2045820989    0.9744498930    1.0655056856
C        4.2216895062    0.0317266556    1.4873550899
C        4.9745096856    1.4407444415   -0.2059920985
C        3.2412513063   -0.1894188133    0.5469925068
C        2.1660994240   -1.2151052685    0.6856667393
C        0.3853469244    0.3492456401   -0.1459858740
C       -0.0239561698   -2.0680827497    0.0957063395
N        0.9473368266   -0.9783229781    0.0909916404
O        2.4072268308   -2.2657762065    1.2870399622
S        3.5489494920    0.7462814805   -0.8966585094
H        6.0503451114    1.2855173183    1.6698024750
H        4.2277942851   -0.4891774252    2.4384302466
H        5.5666178675    2.1420596071   -0.7807339597
H        0.1758838361    0.5102505635   -1.2101687595
H       -0.5556821787    0.4494354070    0.4093291033
H        1.0619608439    1.1281220608    0.1999741418
H       -0.6484511666   -2.0467016408    0.9990865901
H        0.4996216212   -3.0225229442    0.0624713012
H       -0.6706372968   -1.9702473133   -0.7819854691
19   
torsion grid (165,)
C        5.2721115511    0.8705418360    1.0243023498
C        4.2774775057   -0.0571444024    1.4460198144
C        4.9496975610    1.4824679267   -0.1630156222
C        3.1931584696   -0.1236620518    0.5980720461
C        2.1087939083   -1.1373471065    0.7510328357
C        0.3326591731    0.3356910569   -0.2504444447
C       -0.0264214636   -2.0752128729    0.1061273787
N        0.9184288334   -0.9618698426    0.0802635461
O        2.3294816178   -2.1509004332    1.4216687566
S        3.4250587509    0.9428358198   -0.7706423174
H        6.1898751558    1.0702577922    1.5674589621
H        4.3420623090   -0.6813629569    2.3300166424
H        5.5210738816    2.2177910944   -0.7160336741
H        0.2348624037    0.4705444394   -1.3343554217
H       -0.6666902752    0.4037749810    0.1958316103
H        0.9292268637    1.1517134158    0.1535900077
H       -0.6701972119   -2.0383594479    0.9953477255
H        0.5198579769   -3.0174184162    0.1173282716
H       -0.6551372783   -2.0244081775   -0.7881215858
19   
torsion grid (180,)
C        5.3518174185    0.7439524181    1.0015914716
C        4.3739531365   -0.2301291358    1.3436971511
C        4.8963846610    1.6376422698    0.0629246050
C        3.1719787920   -0.0715091876    0.6834239698
C        2.0767002260   -1.0777751090    0.8465760033
C        0.3918987415    0.2954659105   -0.4324379440
C       -0.0790238850   -2.0328437862    0.2656968348
N        0.8764764367   -0.9295168158    0.1939971699
O        2.3060739084   -2.0729737230    1.5449893834
S        3.2696555599    1.3028295095   -0.4046422442
H        6.3496865147    0.7810998222    1.4259260614
H        4.5212037335   -1.0456686365    2.0417230411
H        5.4200663612    2.4782136782   -0.3757795062
H        0.7261003974    0.3951482018   -1.4726746346
H       -0.7005622734    0.2746515504   -0.4307374753
H        0.6969406481    1.1813589816    0.1280342780
H       -0.8692318366   -1.8268634513    0.9996189265
H        0.4432878337   -2.9399830577    0.5633664721
H       -0.5399730928   -2.1777283842   -0.7170575843
