13   
torsion grid (-165,)
C        0.0849212674   -0.1757051318    1.1522494572
C        1.7859068149   -0.8651717494    2.7312743507
C       -0.7630319228   -1.1110006770    1.7540231445
C        0.8455527156   -1.7554051042    3.2593720313
C        1.3722361849   -0.0686333971    1.6684010984
N       -0.4020474991   -1.8857145339    2.7865883331
N        2.3237656987    0.8849618058    1.0584679034
O        3.5168117931    0.7563104506    1.3441286166
O        1.8616800568    1.7351696153    0.2935552121
H       -0.2386575527    0.4428820191    0.3234990811
H        2.7923847823   -0.7926678921    3.1260920169
H       -1.7787585451   -1.2397250244    1.3856826265
H        1.1132000561   -2.3944397396    4.0983821212
13   
torsion grid (-150,)
C        0.0927096435   -0.1889714970    1.1395398525
C        1.7768235090   -0.8426476229    2.7509613668
C       -0.7512436030   -1.1321581821    1.7349937924
C        0.8370185714   -1.7349019307    3.2765519478
C        1.3685110646   -0.0579659898    1.6775878482
N       -0.4003819553   -1.8879422232    2.7845761405
N        2.3226817961    0.8854546630    1.0612465462
O        3.5217080386    0.6067036020    1.1412650893
O        1.8528783790    1.8688185283    0.4832356452
H       -0.2270177938    0.4184076338    0.3006096643
H        2.7791427580   -0.7613337159    3.1556695152
H       -1.7563828894   -1.2833766682    1.3467141965
H        1.0975163314   -2.3592259558    4.1287643882
13   
torsion grid (-135,)
C        0.1032214973   -0.2052215386    1.1237121919
C        1.7691237053   -0.8213707572    2.7704847264
C       -0.7392423153   -1.1513948705    1.7167248671
C        0.8289347656   -1.7142668138    3.2940398502
C        1.3663046745   -0.0525366580    1.6842479878
N       -0.3980042699   -1.8879039593    2.7828592498
N        2.3214857006    0.8837718751    1.0630355503
O        3.4809354021    0.4890140557    0.9184743898
O        1.8806515563    1.9755327638    0.6956631451
H       -0.2113285193    0.3889343761    0.2727774308
H        2.7656789286   -0.7290867823    3.1881790883
H       -1.7350155146   -1.3209222563    1.3120660904
H        1.0812182387   -2.3236887934    4.1594514253
13   
torsion grid (-120,)
C        0.1147731038   -0.2258531823    1.1059441826
C        1.7592301791   -0.7991462611    2.7886782452
C       -0.7278695861   -1.1709010631    1.7006648828
C        0.8198501523   -1.6944111245    3.3100409720
C        1.3662561884   -0.0516391428    1.6847789868
N       -0.3969378924   -1.8882345304    2.7828039220
N        2.3223600400    0.8828842110    1.0623643401
O        3.3972833407    0.4117821753    0.6851615499
O        1.9563612045    2.0523946155    0.9267297729
H       -0.1943796128    0.3504167665    0.2403109836
H        2.7473752233   -0.6917237736    3.2234758405
H       -1.7155509641   -1.3557710628    1.2829815867
H        1.0652124732   -2.2889369864    4.1877807278
13   
torsion grid (-105,)
C        0.1287149876   -0.2540308316    1.0821383427
C        1.7485857487   -0.7780519878    2.8041740644
C       -0.7185023365   -1.1894388796    1.6854707335
C        0.8088213678   -1.6736856148    3.3251242468
C        1.3703527560   -0.0618717618    1.6753206228
N       -0.3987599448   -1.8854911163    2.7846927730
N        2.3238243498    0.8822494413    1.0603251361
O        3.2741013101    0.3933763514    0.4472502549
O        2.0785880847    2.0836078334    1.1825835802
H       -0.1718548945    0.2986552138    0.1979165690
H        2.7249343525   -0.6494464111    3.2601078837
H       -1.7009471939   -1.3842439225    1.2599087048
H        1.0461052625   -2.2507676730    4.2167030810
13   
torsion grid (-90,)
C        0.1415953345   -0.2873754378    1.0562446479
C        1.7372489512   -0.7546337505    2.8165887697
C       -0.7111635900   -1.2086023317    1.6735892434
C        0.7992825380   -1.6508486137    3.3400303656
C        1.3758896261   -0.0779929898    1.6583632419
N       -0.4005917873   -1.8807677258    2.7901465765
N        2.3224286640    0.8821557444    1.0554170907
O        3.1124340360    0.4373256563    0.2215459085
O        2.2470537187    2.0518077209    1.4342884485
H       -0.1486949793    0.2368311109    0.1513446415
H        2.6994307394   -0.5971958632    3.2933709747
H       -1.6905930369   -1.4116613871    1.2448676104
H        1.0296436357   -2.2081814916    4.2459184737
13   
torsion grid (-75,)
C        0.1557291088   -0.3180674531    1.0328742090
C        1.7242061560   -0.7304964275    2.8313663600
C       -0.7029713514   -1.2273472439    1.6596528616
C        0.7887419826   -1.6296110755    3.3537596857
C        1.3815587766   -0.0914274357    1.6461433127
N       -0.4020247366   -1.8777118610    2.7916219841
N        2.3191444945    0.8828580262    1.0541976327
O        2.9224857245    0.5318169940    0.0386866547
O        2.4448604610    1.9604835685    1.6378590356
H       -0.1203927523    0.1807535152    0.1094883774
H        2.6707415533   -0.5420378080    3.3275276452
H       -1.6784225063   -1.4390556350    1.2261338463
H        1.0103069393   -2.1692965229    4.2724043882
13   
torsion grid (-60,)
C        0.1708730319   -0.3447535634    1.0140493368
C        1.7104232967   -0.7079044167    2.8480127686
C       -0.6927952272   -1.2462330560    1.6450931763
C        0.7768045760   -1.6099474843    3.3680671379
C        1.3863288158   -0.0988506716    1.6414010305
N       -0.4034464252   -1.8762518385    2.7916115817
N        2.3167539373    0.8840205562    1.0557644023
O        2.7188607793    0.6613549098   -0.0884678014
O        2.6509284191    1.8316483971    1.7695959428
H       -0.0897177525    0.1334676908    0.0756774516
H        2.6428559660   -0.4930705179    3.3591948749
H       -1.6621188904   -1.4688972249    1.2035435430
H        0.9882133232   -2.1337221394    4.2981725482
13   
torsion grid (-45,)
C        0.1847351987   -0.3661953089    1.0001011675
C        1.6962643120   -0.6864315265    2.8660041848
C       -0.6809537852   -1.2661770561    1.6300700562
C        0.7632788890   -1.5909427728    3.3827976429
C        1.3873371521   -0.0985942064    1.6444353282
N       -0.4045262296   -1.8769712878    2.7903385003
N        2.3169689689    0.8842587725    1.0576600421
O        2.5182659919    0.8103938551   -0.1571750267
O        2.8530077762    1.6825311470    1.8296056344
H       -0.0611475229    0.0961827949    0.0503519753
H        2.6176322172   -0.4525896248    3.3878902773
H       -1.6408546953   -1.5044414941    1.1763978457
H        0.9639555770   -2.1001626508    4.3232383651
13   
torsion grid (-30,)
C        0.1968707995   -0.3859171776    0.9887440582
C        1.6817114600   -0.6662470461    2.8817124532
C       -0.6688113434   -1.2878549694    1.6157293905
C        0.7485578102   -1.5710832925    3.3976789212
C        1.3853043630   -0.0934430519    1.6494563770
N       -0.4059392729   -1.8782241009    2.7898537705
N        2.3207796017    0.8839571860    1.0584407545
O        2.3361858480    0.9771796499   -0.1717144360
O        3.0400699487    1.5184134363    1.8340008146
H       -0.0374614168    0.0629541950    0.0302156483
H        2.5950268971   -0.4192433862    3.4106837481
H       -1.6170540990   -1.5451957021    1.1482501764
H        0.9387232540   -2.0644350992    4.3486643166
13   
torsion grid (-15,)
C        0.2075197548   -0.4036872785    0.9785478453
C        1.6673500665   -0.6462012220    2.8958689439
C       -0.6556469418   -1.3103533715    1.6020854921
C        0.7330525147   -1.5496323804    3.4123210703
C        1.3810501355   -0.0863181901    1.6549223856
N       -0.4071145508   -1.8796200569    2.7897358386
N        2.3254997948    0.8820762433    1.0576303146
O        2.1776857352    1.1553205492   -0.1361513145
O        3.2060221255    1.3407374142    1.7895454268
H       -0.0176492389    0.0329082379    0.0126612603
H        2.5742568020   -0.3892315299    3.4303486288
H       -1.5902247985   -1.5895932279    1.1199621092
H        0.9121624513   -2.0255445462    4.3742379920
13   
torsion grid (0,)
C        0.2189221822   -0.4222270971    0.9691434624
C        1.6531224377   -0.6266245261    2.9079008519
C       -0.6417819285   -1.3338458237    1.5890816069
C        0.7173758563   -1.5275642565    3.4264102310
C        1.3775769664   -0.0789381410    1.6588211122
N       -0.4081679031   -1.8805749186    2.7902093614
N        2.3292212878    0.8811548383    1.0558424879
O        2.0452579867    1.3417482391   -0.0525547041
O        3.3436641648    1.1574921965    1.7007559617
H        0.0012509288    0.0022645122   -0.0036029786
H        2.5543930878   -0.3614441228    3.4474773821
H       -1.5616502814   -1.6360137614    1.0926721167
H        0.8847790645   -1.9845664977    4.3995591017
13   
torsion grid (15,)
C        0.2304861660   -0.4394981984    0.9577827710
C        1.6411884750   -0.6054039537    2.9195284226
C       -0.6263535604   -1.3560334326    1.5755914919
C        0.7034861043   -1.5035275361    3.4390551587
C        1.3723873319   -0.0728175851    1.6627547852
N       -0.4070965108   -1.8796391219    2.7897211465
N        2.3287687876    0.8769711003    1.0546712217
O        1.9429823833    1.5212618401    0.0760577426
O        3.4429508912    0.9713193253    1.5753286458
H        0.0206272427   -0.0267687081   -0.0219449301
H        2.5372364421   -0.3315032004    3.4638248937
H       -1.5311175939   -1.6817543516    1.0665120668
H        0.8584176910   -1.9417455366    4.4228325766
13   
torsion grid (30,)
C        0.2422561148   -0.4566747678    0.9477097392
C        1.6280548828   -0.5825935328    2.9302263328
C       -0.6109992599   -1.3779870117    1.5634591365
C        0.6897078014   -1.4793345952    3.4508860464
C        1.3671002703   -0.0650608518    1.6659163024
N       -0.4054294624   -1.8790214547    2.7893917089
N        2.3279902693    0.8727164494    1.0519217432
O        1.8809320448    1.6869483886    0.2399026553
O        3.5044611917    0.7944020578    1.4141232003
H        0.0397019098   -0.0573467029   -0.0395505807
H        2.5178514335   -0.2989231402    3.4804625730
H       -1.5006921289   -1.7266099492    1.0430419691
H        0.8330287829   -1.8996542483    4.4442251669
13   
torsion grid (45,)
C        0.2551435932   -0.4759658392    0.9364415113
C        1.6142542576   -0.5585739064    2.9401534402
C       -0.5954100825   -1.3995453360    1.5527246698
C        0.6765876902   -1.4557873981    3.4611791795
C        1.3622572309   -0.0594927756    1.6671115367
N       -0.4035551156   -1.8784856810    2.7894595497
N        2.3258628791    0.8703939999    1.0496195807
O        1.8610589211    1.8350188340    0.4370371642
O        3.5240574829    0.6363272367    1.2228797104
H        0.0601283230   -0.0928915474   -0.0592987104
H        2.4956359034   -0.2623910747    3.4981931599
H       -1.4713933343   -1.7686420300    1.0231783896
H        0.8093361011   -1.8591038411    4.4630368113
13   
torsion grid (60,)
C        0.2694833087   -0.4984919133    0.9248912778
C        1.5983279602   -0.5331419639    2.9493632110
C       -0.5806424784   -1.4210853597    1.5436900516
C        0.6635259595   -1.4333403201    3.4704869936
C        1.3602436691   -0.0581823515    1.6649861304
N       -0.4019137034   -1.8786417659    2.7902248906
N        2.3247669427    0.8715281792    1.0485204405
O        1.8870672092    1.9581696315    0.6635964663
O        3.5010226901    0.5063028723    1.0009876568
H        0.0831557955   -0.1360508328   -0.0806252246
H        2.4670568833   -0.2189907356    3.5181429127
H       -1.4450015264   -1.8073950967    1.0072368912
H        0.7868711401   -1.8198197021    4.4802142951
13   
torsion grid (75,)
C        0.2890696124   -0.5259523458    0.9123150323
C        1.5819536117   -0.5087173137    2.9599833620
C       -0.5659679762   -1.4409430023    1.5357815399
C        0.6493198246   -1.4122452319    3.4798166428
C        1.3651866374   -0.0659020543    1.6609464399
N       -0.4022287579   -1.8773947076    2.7918054731
N        2.3245119646    0.8744905976    1.0493456044
O        1.9538720198    2.0419424807    0.9144562238
O        3.4304588933    0.4238796318    0.7467350020
H        0.1160222176   -0.1878296321   -0.1042648389
H        2.4323926224   -0.1704391992    3.5430299967
H       -1.4221097915   -1.8386610344    0.9943892693
H        0.7614829718   -1.7813675475    4.4973762458
13   
torsion grid (90,)
C        0.3140656548   -0.5562661017    0.9003061966
C        1.5648489684   -0.4858529426    2.9724635328
C       -0.5506126210   -1.4589105968    1.5284272914
C        0.6334655480   -1.3923318898    3.4899522313
C        1.3772490558   -0.0801117753    1.6571344807
N       -0.4043416934   -1.8749229588    2.7935360352
N        2.3262538778    0.8761934447    1.0519596033
O        2.0628748444    2.0736502651    1.1705020495
O        3.3061570991    0.4006062841    0.4767054544
H        0.1600218754   -0.2444750229   -0.1277804246
H        2.3925500240   -0.1187522037    3.5708362683
H       -1.4004692350   -1.8639809308    0.9825526098
H        0.7319004517   -1.7439849301    4.5151206644
13   
torsion grid (105,)
C        0.3427463045   -0.5877172619    0.8886228067
C        1.5483750808   -0.4659126611    2.9851937546
C       -0.5353728422   -1.4749480966    1.5198941217
C        0.6154065786   -1.3721416504    3.4999990202
C        1.3933698543   -0.0977566901    1.6545101281
N       -0.4091601357   -1.8692766904    2.7940951976
N        2.3291499967    0.8739467602    1.0555108959
O        2.2122460077    2.0488701822    1.4073238938
O        3.1332022591    0.4394041764    0.2290591281
H        0.2129683503   -0.3013050232   -0.1500195482
H        2.3535359616   -0.0704160077    3.5959064451
H       -1.3794218565   -1.8855198640    0.9692017755
H        0.6969182909   -1.7063665321    4.5324183738
13   
torsion grid (120,)
C        0.3661837392   -0.6178162382    0.8786322027
C        1.5319290790   -0.4447713810    2.9941917279
C       -0.5202557862   -1.4945829317    1.5129510577
C        0.5996099751   -1.3510453147    3.5091695821
C        1.4027388416   -0.1085172661    1.6517936553
N       -0.4110139912   -1.8662900400    2.7955297729
N        2.3297092437    0.8714273433    1.0557205142
O        2.3922154130    1.9787415542    1.5938910214
O        2.9367007356    0.5239904668    0.0403607113
H        0.2570867032   -0.3534440177   -0.1678803939
H        2.3187875794   -0.0235318625    3.6109820806
H       -1.3564300227   -1.9156609911    0.9582828676
H        0.6667023403   -1.6676386800    4.5480911932
13   
torsion grid (135,)
C        0.3827772989   -0.6410646060    0.8709529756
C        1.5131075921   -0.4222277733    3.0019605256
C       -0.5051205676   -1.5164040593    1.5050442300
C        0.5830323914   -1.3308923228    3.5163705847
C        1.4018797095   -0.1079996282    1.6520832591
N       -0.4113121688   -1.8671573985    2.7948905492
N        2.3301839113    0.8702120467    1.0551721057
O        2.5924860736    1.8741585755    1.7217636470
O        2.7418612605    0.6328591467   -0.0829950587
H        0.2902088348   -0.3929900420   -0.1806853154
H        2.2860248581    0.0187202828    3.6218565402
H       -1.3287714663   -1.9542795674    0.9447615217
H        0.6376061226   -1.6320740130    4.5605404285
13   
torsion grid (150,)
C        0.3958792235   -0.6616295995    0.8654303417
C        1.4932549579   -0.4005484539    3.0073487904
C       -0.4895755920   -1.5401133710    1.4984068959
C        0.5647206602   -1.3103744566    3.5227485354
C        1.3962269644   -0.1011768797    1.6525289137
N       -0.4118672296   -1.8700359207    2.7949596311
N        2.3312900291    0.8720339309    1.0534643275
O        2.7952808542    1.7392450743    1.7980624213
O        2.5584119902    0.7688516467   -0.1546686494
H        0.3153866866   -0.4272305690   -0.1898027346
H        2.2556427921    0.0548319341    3.6289900369
H       -1.2977723834   -1.9983761599    0.9320623224
H        0.6070848969   -1.5946165345    4.5721851608
13   
torsion grid (165,)
C        0.0732618969   -0.1479785111    1.1781655367
C        1.8036516523   -0.9073751701    2.6918129580
C       -0.7812332280   -1.0677114159    1.7944947479
C        0.8629183746   -1.7966915640    3.2207786830
C        1.3803907144   -0.0880352766    1.6502620495
N       -0.4042352122   -1.8804956547    2.7914605811
N        2.3249745001    0.8820814360    1.0557832222
O        3.3690595025    1.1076284721    1.6726524677
O        1.9978795854    1.4112943271   -0.0093032780
H       -0.2586393370    0.4904035170    0.3679243586
H        2.8176807087   -0.8528223342    3.0698398784
H       -1.8158236209   -1.1515819967    1.4680990561
H        1.1440783132   -2.4678551876    4.0297457317
13   
torsion grid (180,)
C        0.0782298453   -0.1624108053    1.1654731012
C        1.7941881392   -0.8864150418    2.7114792752
C       -0.7729514246   -1.0900210187    1.7745934460
C        0.8535647751   -1.7762808919    3.2400391279
C        1.3762924245   -0.0779694270    1.6590785359
N       -0.4041691734   -1.8841162170    2.7894614669
N        2.3253761882    0.8846150877    1.0563154771
O        3.4658256605    0.9266911852    1.5243380302
O        1.9132066043    1.5814812861    0.1257720162
H       -0.2499892268    0.4657857570    0.3460453091
H        2.8043620814   -0.8229177269    3.0978940573
H       -1.7985376718   -1.1962644658    1.4270455386
H        1.1285656281   -2.4313170802    4.0641806117
