22   
torsion grid (-165,)
C        0.6644203991   -1.9157490026   -1.8462244701
C        2.7197389132   -0.4409446227   -1.8607510684
C        0.0969937401    0.1269426629    1.9952830433
C       -1.9732209193    0.5266849025   -0.4998371354
C        1.2648655365   -0.5777657576   -1.4080002887
N        1.2441711225   -0.4760106544    0.0662114684
N       -0.0500816048   -0.3171752293    0.6055989238
O       -0.6808770662    0.8866926618   -0.0300954292
H       -0.3472855638   -2.0398135467   -1.4517284387
H        0.6199099800   -1.9762444619   -2.9389813056
H        1.2743522822   -2.7460642214   -1.4745227438
H        3.1407588172    0.5303781227   -1.5742525900
H        2.7851416210   -0.5218907416   -2.9500674199
H        3.3390871401   -1.2283990567   -1.4182575767
H       -0.8956893976    0.3154163150    2.4067288451
H        0.5824642067   -0.6710388107    2.5634392820
H        0.6945236199    1.0485362782    2.0629543611
H       -2.4003512633    1.4397307296   -0.9259789787
H       -2.6174103903    0.1749330789    0.3170522361
H       -1.9238238262   -0.2503882964   -1.2722431527
H        0.6806417268    0.2418447186   -1.8435416937
H        1.7982927335    0.3551522752    0.3123336633
22   
torsion grid (-150,)
C        0.6232634944   -1.7735617154   -1.9944047626
C        2.8036166200   -0.5158484692   -1.7739869401
C        0.1172359355    0.2681787920    1.9322429523
C       -2.0670122457    0.3645305293   -0.4002401338
C        1.3195281738   -0.5462501030   -1.4013696105
N        1.2421343921   -0.5826262401    0.0768099715
N       -0.0599257175   -0.3686758472    0.6208827571
O       -0.7212079172    0.7404807227   -0.1427365158
H       -0.4170060772   -1.8352206267   -1.6659829217
H        0.6354721821   -1.7293723572   -3.0886961096
H        1.1302934317   -2.6903250010   -1.6749322681
H        3.2996037415    0.3811485939   -1.3833954313
H        2.9167394053   -0.5084177691   -2.8624862647
H        3.3224645347   -1.3951897963   -1.3782236908
H       -0.8671491267    0.4785739642    2.3529750829
H        0.6476195317   -0.4271735356    2.5898248428
H        0.6821752487    1.2080296778    1.8465479580
H       -2.5023922020    1.1913636686   -0.9695476369
H       -2.6370907953    0.2304594113    0.5295207882
H       -2.1252769502   -0.5590225298   -0.9875322068
H        0.8358475402    0.3589405779   -1.7816474149
H        1.8376886078    0.1948053964    0.3914970859
22   
torsion grid (-135,)
C        0.5824125860   -1.6045891195   -2.1186743515
C        2.8542876615   -0.5923476293   -1.6950280828
C        0.1494566747    0.4088176198    1.8658277567
C       -2.1358874155    0.1851304230   -0.3236006108
C        1.3576899512   -0.5121859987   -1.3792272764
N        1.2251816716   -0.6868038033    0.0872709698
N       -0.0764215389   -0.3932489603    0.6560036044
O       -0.7768816730    0.5887230108   -0.2173372328
H       -0.4824101513   -1.5675950185   -1.8793408612
H        0.6905039775   -1.4831169964   -3.2019308101
H        0.9596429108   -2.5936014057   -1.8375123651
H        3.4161742060    0.2091871731   -1.1998893612
H        3.0148100941   -0.4911657333   -2.7728781809
H        3.2692148600   -1.5525268716   -1.3715812151
H       -0.8182690682    0.6570463401    2.3051016135
H        0.7181906714   -0.1924579688    2.5825195848
H        0.6939887778    1.3364957327    1.6365052428
H       -2.5991704987    0.8858307782   -1.0245330877
H       -2.6555788221    0.2477713809    0.6426161648
H       -2.2227314462   -0.8380563816   -0.7059184837
H        0.9787173658    0.4662200354   -1.6898848825
H        1.8737010130    0.0073007365    0.4766113963
22   
torsion grid (-120,)
C        0.5523899745   -1.4648579938   -2.2127940308
C        2.8584480937   -0.6459798302   -1.6169745923
C        0.2150414198    0.5564821180    1.8028856656
C       -2.1794653479    0.0232647020   -0.2897771968
C        1.3575843277   -0.4965806225   -1.3429806068
N        1.1640594642   -0.8018189083    0.0960845845
N       -0.1062973415   -0.3705728123    0.7104585388
O       -0.8338509295    0.4864663017   -0.2320352679
H       -0.5187218504   -1.3738787463   -2.0245757414
H        0.7266640713   -1.2594041337   -3.2748063731
H        0.8511938200   -2.4972555370   -2.0020812716
H        3.4493762374    0.0785469688   -1.0431149981
H        3.0646431423   -0.4750609702   -2.6780411030
H        3.2021049571   -1.6525565199   -1.3565297570
H       -0.7185947116    0.8841411975    2.2648009503
H        0.8042093503    0.0185258971    2.5529091977
H        0.7723490183    1.4348261275    1.4439997626
H       -2.6722123146    0.6445141818   -1.0433114249
H       -2.6895204417    0.1489012351    0.6743778645
H       -2.2265873230   -1.0314646799   -0.5820238086
H        1.0564645387    0.5301615603   -1.5780824746
H        1.8873436523   -0.2515721925    0.5667316140
22   
torsion grid (-105,)
C        0.5279529058   -1.3219771323   -2.2912294617
C        2.8440957606   -0.6987444242   -1.5304069162
C        0.3051230509    0.7118282829    1.7182592313
C       -2.2136018710   -0.1447721284   -0.2572488408
C        1.3425210863   -0.4817083263   -1.3041372609
N        1.0633298720   -0.8961772767    0.0937066152
N       -0.1304073397   -0.3061896756    0.7556445914
O       -0.9032572015    0.4210273122   -0.2221044598
H       -0.5439562146   -1.1816522688   -2.1468442495
H        0.7691247096   -1.0394119555   -3.3223306706
H        0.7579308069   -2.3843170156   -2.1566372788
H        3.4477707249   -0.0338626215   -0.9005205397
H        3.1044500484   -0.4960859209   -2.5737431884
H        3.1222071532   -1.7340414175   -1.3041846542
H       -0.5820591234    1.1382841806    2.1921086930
H        0.9051652518    0.2192637606    2.4901196389
H        0.8886857914    1.5175515016    1.2461187771
H       -2.7461237434    0.3990180849   -1.0428205102
H       -2.7295610694   -0.0072175501    0.7007777217
H       -2.1782170753   -1.2129933935   -0.4958903683
H        1.1152713145    0.5797458477   -1.4640702254
H        1.8501769695   -0.5627405201    0.6505528871
22   
torsion grid (-90,)
C        0.5168059497   -1.1668418911   -2.3579864006
C        2.8203319256   -0.7536063209   -1.4295584266
C        0.4034448020    0.8586314678    1.6060035775
C       -2.2321939486   -0.3171446875   -0.2158025848
C        1.3234182685   -0.4627656142   -1.2628004560
N        0.9243633928   -0.9556283786    0.0801403877
N       -0.1458688994   -0.2193929492    0.7783353018
O       -0.9905327048    0.3932492781   -0.1926083790
H       -0.5495429117   -0.9606321616   -2.2607126710
H        0.8390033615   -0.8251664408   -3.3485779680
H        0.6669031664   -2.2499578375   -2.2957793516
H        3.4239297188   -0.1726960985   -0.7217443910
H        3.1530436332   -0.4999278753   -2.4407493973
H        3.0255105461   -1.8179577336   -1.2651650119
H       -0.4283438584    1.3752561903    2.0908915907
H        1.0264030249    0.4025754378    2.3812351000
H        0.9989455221    1.5883639141    1.0343302215
H       -2.8292465575    0.1619373370   -0.9969095836
H       -2.7442794051   -0.2361866570    0.7495506101
H       -2.0761210573   -1.3736023725   -0.4574572328
H        1.1688061295    0.6213262107   -1.3494378414
H        1.7218417092   -0.9050054739    0.7099224376
22   
torsion grid (-75,)
C        0.5272555968   -1.0116142015   -2.4074758261
C        2.8009378988   -0.8236030182   -1.3273590592
C        0.4775578672    0.9849272136    1.4707243319
C       -2.2393138469   -0.4710689734   -0.1546022747
C        1.3190605305   -0.4433003619   -1.2251871248
N        0.7882494454   -0.9737268060    0.0559985452
N       -0.1528977392   -0.1471458624    0.7866832663
O       -1.0919105116    0.3835949557   -0.1410370919
H       -0.5215451842   -0.7165179403   -2.3516680489
H        0.9363391530   -0.6440561809   -3.3560519414
H        0.5804603119   -2.1055986584   -2.4048048887
H        3.3940603975   -0.3359393664   -0.5446669971
H        3.2144309411   -0.5286740222   -2.2968053862
H        2.9263825811   -1.9087880592   -1.2286294247
H       -0.3013701017    1.5418907737    1.9967937281
H        1.1756624488    0.5779861139    2.2076006178
H        1.0152576359    1.6706514650    0.7974754760
H       -2.9163651188   -0.0429465541   -0.8988612138
H       -2.7200426430   -0.4860704246    0.8297440172
H       -1.9611929120   -1.4899735510   -0.4439024210
H        1.2400494584    0.6520664898   -1.2471109467
H        1.5255555985   -1.1972656877    0.7182621942
22   
torsion grid (-60,)
C        0.5737096894   -0.7419622007   -2.4120563449
C        2.7916265992   -1.0730258009   -1.2474407010
C        0.4254042670    1.1857241460    1.2755814455
C       -2.2312825897   -0.6864078764   -0.0623239387
C        1.4094067372   -0.4155996692   -1.1687796965
N        0.7390140947   -0.9095475153    0.0558294149
N       -0.1576732700   -0.0592943044    0.7683844097
O       -1.2225913559    0.3238841731   -0.1066551667
H       -0.3996808409   -0.2516810482   -2.3623505703
H        1.0884197271   -0.4044444427   -3.3195465163
H        0.4149737553   -1.8235144741   -2.4835248743
H        3.4298680624   -0.7671023101   -0.4099922861
H        3.3002532904   -0.7985358333   -2.1764696238
H        2.6969283550   -2.1654085099   -1.2278146004
H       -0.3298393532    1.6873481684    1.8848704151
H        1.2743791948    0.9187567048    1.9107022574
H        0.7608854423    1.8785644601    0.4902534628
H       -3.0119212210   -0.3538214652   -0.7516301384
H       -2.6364211294   -0.7825984644    0.9515586849
H       -1.8279006006   -1.6498433444   -0.3926420991
H        1.5521206525    0.6733941760   -1.1221549759
H        1.3769423007   -1.3000572257    0.7413209736
22   
torsion grid (-45,)
C        0.7109277975   -0.2142196213   -2.3088085273
C        2.6778525132   -1.4249043143   -1.2881338277
C        0.2527703723    1.3715231561    0.9668657787
C       -2.1690199685   -1.0393672918    0.1180689889
C        1.5795575046   -0.3815433393   -1.0589396749
N        0.7840072636   -0.8460312872    0.0951156978
N       -0.1707777405   -0.0058947391    0.7110754150
O       -1.3390624428    0.0927529121   -0.1263381152
H       -0.0547997598    0.5501009982   -2.1700456421
H        1.3395000782    0.0675422433   -3.1614759974
H        0.2035917211   -1.1561846441   -2.5424626086
H        3.3279127197   -1.5255306265   -0.4103270434
H        3.3070267650   -1.1377406190   -2.1360223680
H        2.2356844864   -2.4039952110   -1.5015638007
H       -0.5231574881    1.8579121468    1.5619708004
H        1.1783802544    1.3345482455    1.5479562918
H        0.4191025972    1.9632220440    0.0552715078
H       -3.0292328633   -0.9236977900   -0.5467862702
H       -2.4997594758   -1.0618680180    1.1637561887
H       -1.6381328433   -1.9676375295   -0.1219263224
H        2.0723062262    0.5821761322   -0.8466173383
H        1.3519440904   -1.2463355034    0.8344863982
22   
torsion grid (-30,)
C        0.8130163277   -0.0879695197   -2.3027367843
C        2.6673723683   -1.4620572345   -1.2748373657
C        0.2302580488    1.3829627687    0.8215510293
C       -2.2016126853   -1.0931310024    0.2431118201
C        1.6087599369   -0.3834127042   -1.0273193227
N        0.7202350151   -0.8835447629    0.0401112920
N       -0.1785770661   -0.0189800373    0.7049089789
O       -1.4094654356    0.0464011432   -0.0691701889
H        0.0335178654    0.6563191071   -2.1297669651
H        1.4822958697    0.2810093167   -3.0883441387
H        0.3228048827   -1.0007870406   -2.6567382347
H        3.2664460186   -1.6524801972   -0.3759701139
H        3.3511518260   -1.1495377546   -2.0698384606
H        2.1932027390   -2.4018417319   -1.5772734516
H       -0.5191345943    1.8947007832    1.4282889341
H        1.1917853392    1.4163812004    1.3417564359
H        0.3167009234    1.9018592042   -0.1418752139
H       -3.1065162878   -0.9997183631   -0.3636228706
H       -2.4632516114   -1.1089893032    1.3087865973
H       -1.6755669386   -2.0177303825   -0.0223951295
H        2.1319887964    0.5352319494   -0.7172599443
H        1.2412104690   -1.3698580954    0.7637526283
22   
torsion grid (-15,)
C        2.1719531392   -1.0320809599    0.0017714970
C        1.9992757502   -0.9137962351   -2.5153975278
C       -1.2384934170   -1.4246631507    0.2140133646
C       -0.7876358674    2.0247545198    0.7109964381
C        1.2270915683   -1.0870676301   -1.2044078423
N        0.2358659784    0.0059060275   -1.1306032582
N       -0.9077252283   -0.0907854574   -0.2964608234
O       -0.6047771888    0.6355596579    0.9438303873
H        1.6228245094   -1.0644804038    0.9452087284
H        2.8755195133   -1.8721916557   -0.0216135045
H        2.7399383970   -0.0960980004   -0.0135032401
H        1.3410473653   -1.0141084048   -3.3868252264
H        2.7814997469   -1.6742157231   -2.5989258303
H        2.4743466193    0.0724042897   -2.5533300240
H       -2.1432189724   -1.3217277028    0.8150032602
H       -1.4535815765   -2.0803983034   -0.6344384134
H       -0.4516496876   -1.8693380461    0.8344580184
H       -0.5623540375    2.5169942364    1.6612607328
H       -1.8216572744    2.2420821454    0.4129814279
H       -0.0966391229    2.3882315387   -0.0594633513
H        0.7383067570   -2.0721307209   -1.2305955134
H       -0.1233151642    0.2119773224   -2.0588397682
22   
torsion grid (0,)
C        2.2209127784   -1.1967391421   -0.0365564821
C        1.9855449950   -0.8782494967   -2.5276862286
C       -1.1731043510   -1.4033679531    0.2924890050
C       -0.9164245817    2.0805972193    0.6453673247
C        1.2372341246   -1.1017815162   -1.2100494604
N        0.3184335653    0.0430690149   -1.0250274692
N       -0.8920703060   -0.0821551559   -0.2785075968
O       -0.7089141970    0.7106591488    0.9522745478
H        1.7012567108   -1.2680823641    0.9214272787
H        2.8693713567   -2.0739009744   -0.1439729141
H        2.8460220270   -0.2984167721   -0.0031443046
H        1.3014896819   -0.8811607324   -3.3846168659
H        2.7223224335   -1.6715438940   -2.6848549798
H        2.5151523576    0.0805703391   -2.5107837545
H       -2.1002802104   -1.3091391448    0.8588212516
H       -1.3337863641   -2.1170998028   -0.5196653135
H       -0.3866128739   -1.7705339455    0.9609534227
H       -0.8116541172    2.6163323120    1.5930865706
H       -1.9204402998    2.2460941190    0.2327029075
H       -0.1610477430    2.4473182000   -0.0611908071
H        0.6876771801   -2.0495821458   -1.2943230116
H        0.0155396407    0.3619400304   -1.9416235889
22   
torsion grid (15,)
C        2.2355941287   -1.4084237596   -0.0993636410
C        1.9944047824   -0.7973288102   -2.5290763690
C       -1.0881882729   -1.3702633345    0.4304097016
C       -1.0528844137    2.1347776595    0.5390801217
C        1.2424387141   -1.1168468462   -1.2319429383
N        0.4015196788    0.0607730173   -0.9150858570
N       -0.8569739581   -0.0802488828   -0.2268649923
O       -0.7780552202    0.8039906233    0.9480035113
H        1.7309576480   -1.6041360015    0.8485663856
H        2.8520687106   -2.2814151880   -0.3429397769
H        2.8916715765   -0.5444805847    0.0480699292
H        1.3050766921   -0.6648920444   -3.3712668840
H        2.6790998341   -1.6122424304   -2.7815528635
H        2.5829682725    0.1196838123   -2.4155010820
H       -2.0584206968   -1.2982863225    0.9233004484
H       -1.1415032581   -2.1605857800   -0.3211230621
H       -0.3294537520   -1.6151231297    1.1814474807
H       -1.0607145394    2.7314183524    1.4556150419
H       -2.0296625234    2.2027541449    0.0423723597
H       -0.2702281945    2.5175016433   -0.1290102023
H        0.6322443840   -2.0121441480   -1.4160363925
H        0.1346622146    0.4803453529   -1.8019813878
22   
torsion grid (30,)
C        2.1776364217   -1.6607415328   -0.1918441878
C        2.0358292028   -0.7022416444   -2.5102777472
C       -0.9483790871   -1.3083606685    0.6125301607
C       -1.2075802756    2.1743372210    0.4081289538
C        1.2320863899   -1.1201595101   -1.2715315113
N        0.5017892866    0.0838227305   -0.8134522791
N       -0.7857033471   -0.0663885056   -0.1467388930
O       -0.7877498193    0.9219806496    0.9298903577
H        1.6456273368   -1.9985849047    0.6984266820
H        2.7515178664   -2.5094467449   -0.5811893694
H        2.8761975432   -0.8750082341    0.1129401943
H        1.3772165512   -0.3956412299   -3.3313392529
H        2.6481099646   -1.5359262756   -2.8660248394
H        2.7017731372    0.1336936871   -2.2699745762
H       -1.9590420166   -1.2927885722    1.0238281777
H       -0.8593473585   -2.1674753370   -0.0539277482
H       -0.2333083391   -1.3924444916    1.4391726523
H       -1.3064763184    2.8377586364    1.2718021112
H       -2.1730336948    2.0850194434   -0.1058107200
H       -0.4608909729    2.5967559255   -0.2779233438
H        0.5411019237   -1.9178950991   -1.5853586487
H        0.2492474127    0.5945618008   -1.6562066414
22   
torsion grid (45,)
C        2.1504381680   -1.8638788279   -0.2860363975
C        2.0696967615   -0.6620625286   -2.4901836518
C       -0.8399702787   -1.2211488371    0.7235402750
C       -1.4015566514    2.1712421042    0.3063905220
C        1.2497518687   -1.1091735851   -1.2721641807
N        0.6708828025    0.1124722370   -0.6646979057
N       -0.6749678183   -0.0159991471   -0.0902546187
O       -0.7589988211    1.0469166878    0.8946188162
H        1.6066594331   -2.2214971872    0.5893383481
H        2.6048784441   -2.7322185576   -0.7767602481
H        2.9487231604   -1.2017645444    0.0640938578
H        1.4310500000   -0.2093980905   -3.2576215311
H        2.5830771104   -1.5158516716   -2.9419196324
H        2.8269962703    0.0717967803   -2.1924318137
H       -1.8519713994   -1.1878168812    1.1305733124
H       -0.7492919083   -2.1075419539    0.0944873218
H       -0.1222318629   -1.2671147575    1.5527542514
H       -1.5350080151    2.8929599603    1.1169863447
H       -2.3763222869    1.8968390105   -0.1143047452
H       -0.7830296743    2.6315432322   -0.4768528531
H        0.4594350605   -1.7822995677   -1.6402162630
H        0.5083814446    0.7588234687   -1.4342196772
22   
torsion grid (60,)
C        2.0917425647   -2.0615132576   -0.3881528109
C        2.1698221934   -0.6562761078   -2.4717362534
C       -0.7589235022   -1.0299633211    0.7818806787
C       -1.6622323642    2.0845507548    0.2770209066
C        1.3057341930   -1.0931861976   -1.2814492845
N        0.9061958481    0.1259976997   -0.5373878935
N       -0.4960218813    0.1068214990   -0.1036729654
O       -0.5850986933    1.2775366673    0.7447832516
H        1.5200641420   -2.3793874821    0.4854119382
H        2.3724047221   -2.9576887886   -0.9534594603
H        3.0044054745   -1.5755194895   -0.0285350805
H        1.5916244701   -0.0572227142   -3.1845514445
H        2.5644533077   -1.5264556135   -3.0047075000
H        3.0208796789   -0.0581043887   -2.1260124136
H       -1.7682293143   -0.8996799349    1.1779460254
H       -0.7366640868   -1.9547993607    0.2024718527
H       -0.0434108404   -1.0823003504    1.6132465795
H       -1.6700537573    2.9657589698    0.9247914710
H       -2.6256101548    1.5644147604    0.3580907717
H       -1.5101839989    2.3922799027   -0.7650687285
H        0.4170062488   -1.6011754804   -1.6868043795
H        0.9087175577    0.9007395769   -1.1989857295
22   
torsion grid (75,)
C        2.0725113064   -2.1589036563   -0.5047456486
C        2.1263167000   -0.5449563793   -2.4398362100
C       -0.7270393424   -1.0098159319    0.9545948744
C       -1.6653180944    2.0442885547    0.0893506470
C        1.2980721582   -1.0731045110   -1.2624001599
N        0.9641453198    0.0608164273   -0.3616207599
N       -0.4676757201    0.0543197050   -0.0200442061
O       -0.6272510403    1.2909312843    0.7119775100
H        1.5210427571   -2.5216947492    0.3656403405
H        2.2770118802   -3.0138625134   -1.1594189185
H        3.0264603237   -1.7577109397   -0.1472099638
H        1.5424601637    0.1484423049   -3.0558958308
H        2.4613163055   -1.3661428384   -3.0809651524
H        3.0172586537   -0.0195907253   -2.0757074370
H       -1.7496092408   -0.8826356720    1.3164278863
H       -0.6588087778   -1.9754168531    0.4488696634
H       -0.0215134093   -0.9733689310    1.7948465205
H       -1.7204536511    2.9835444634    0.6469125928
H       -2.6311118489    1.5265757992    0.1477161807
H       -1.4343640956    2.2509915287   -0.9630955857
H        0.3680430348   -1.4985174034   -1.6673478657
H        1.0451284249    0.9206383799   -0.9029289460
22   
torsion grid (90,)
C        1.9908786756   -2.2475989891   -0.6651979786
C        2.1256168302   -0.4065332683   -2.3822193102
C       -0.6700960292   -0.9683785550    1.2007067433
C       -1.6471411703    1.9591830194   -0.1208350381
C        1.2701211859   -1.0407302474   -1.2789956765
N        0.9793912914   -0.0182864519   -0.2413515872
N       -0.4560763794   -0.0257189732    0.0990050633
O       -0.6734871879    1.2809960755    0.6714597278
H        1.4138671396   -2.6954990980    0.1477315681
H        2.1632422807   -3.0202316329   -1.4231367737
H        2.9582111135   -1.9403485729   -0.2541272661
H        1.5764360461    0.3857241433   -2.9040211529
H        2.4248760714   -1.1538595145   -3.1235211054
H        3.0384968836    0.0275900101   -1.9571124219
H       -1.7067862871   -0.8700413924    1.5313428311
H       -0.5210980282   -1.9810718441    0.8196413295
H        0.0182866658   -0.7809423803    2.0343654987
H       -1.7511746159    2.9513412300    0.3272361835
H       -2.6127448873    1.4399292254   -0.0983812767
H       -1.3176357336    2.0573381102   -1.1629652604
H        0.3199060701   -1.3706411041   -1.7229165409
H        1.0935318725    0.9026075537   -0.6615880252
22   
torsion grid (105,)
C        1.3771979948   -2.2695885734   -0.9684051485
C        2.5325965303   -0.3586567040   -2.1393373511
C       -0.2165130595   -0.7641163577    1.5274227612
C       -1.8994734080    1.5737657513   -0.2857079314
C        1.2472199278   -0.8217958359   -1.4451342668
N        1.0035114938    0.1121667150   -0.3277500387
N       -0.3354578493   -0.0656153936    0.2446148471
O       -0.7928751991    1.2607415352    0.5609640106
H        0.4252628802   -2.6586872963   -0.5978170789
H        1.6892619109   -2.9074285861   -1.8022362516
H        2.1262826983   -2.3482646452   -0.1727276814
H        2.4410052806    0.6701934543   -2.5076748950
H        2.7561650159   -1.0007294366   -2.9968431838
H        3.3792188450   -0.3970577009   -1.4460418160
H       -1.2185678081   -0.8659594216    1.9524943660
H        0.1975097723   -1.7545826847    1.3439379108
H        0.4372995774   -0.2236896536    2.2246455538
H       -2.1974639801    2.5912702216   -0.0174770657
H       -2.7333323660    0.8831999265   -0.1162152314
H       -1.6144596346    1.5407881909   -1.3448403047
H        0.4152588034   -0.7777656285   -2.1685659740
H        0.9969743813    1.0666394668   -0.6821856990
22   
torsion grid (120,)
C        1.1715045830   -2.2546414959   -1.0963619215
C        2.4702596268   -0.3637295656   -2.1608566518
C       -0.0656222608   -0.6145556913    1.7483371176
C       -1.8236986541    1.4004922474   -0.4454661118
C        1.1740900563   -0.7679974427   -1.4539502034
N        1.0576524599    0.0506688367   -0.2341111911
N       -0.2392543741   -0.0951038793    0.3913688464
O       -0.8010873681    1.2230845785    0.5353696794
H        0.2312095892   -2.5373465189   -0.6150146544
H        1.2843783196   -2.8632228494   -2.0001216194
H        1.9979456886   -2.4850544740   -0.4147009939
H        2.4628023910    0.6979383240   -2.4360407628
H        2.6024664405   -0.9451513278   -3.0785588850
H        3.3335630726   -0.5408922900   -1.5108311316
H       -1.0526982013   -0.7276547424    2.2044423366
H        0.4136692552   -1.5911881312    1.6678862891
H        0.5611741251    0.0431663478    2.3664983435
H       -2.2249660314    2.4038707908   -0.2773156026
H       -2.6156775788    0.6532455739   -0.3244475830
H       -1.4180432682    1.3360672890   -1.4630873136
H        0.3246550171   -0.5797128962   -2.1325359919
H        1.1722989194    1.0425446600   -0.4353824634
22   
torsion grid (135,)
C        1.0242937403   -2.2097775502   -1.2833151664
C        2.5455054667   -0.3582877595   -2.1014680717
C       -0.0217394443   -0.4608902527    1.8574535431
C       -1.8752349135    1.1903937749   -0.4892357199
C        1.1951410120   -0.7021583346   -1.4692470398
N        1.1299618628   -0.0305425670   -0.1586220771
N       -0.1549542385   -0.1079978361    0.4438845561
O       -0.7662252934    1.2064333956    0.4089956062
H        0.0675659518   -2.4301382819   -0.8021803559
H        1.0486557565   -2.7213769889   -2.2517009839
H        1.8294917989   -2.6085411053   -0.6561761673
H        2.6523968150    0.7221782745   -2.2563401418
H        2.6474060250   -0.8467318144   -3.0754101299
H        3.3661598461   -0.6939551820   -1.4584542624
H       -1.0203267274   -0.5135128954    2.2989940799
H        0.4530958208   -1.4423796368    1.9050797453
H        0.5896727824    0.2640395476    2.4144127131
H       -2.3175679904    2.1893888978   -0.4328449166
H       -2.6150397452    0.4399687444   -0.1874720259
H       -1.5562016218    0.9894660486   -1.5189318944
H        0.3943829464   -0.3424838280   -2.1364674734
H        1.4001819570    0.9517326930   -0.2158342860
22   
torsion grid (150,)
C        0.9188286321   -2.1430659592   -1.4735032036
C        2.6560510393   -0.3878079618   -2.0366985831
C       -0.0191005718   -0.2915193991    1.8886143913
C       -1.9667819587    0.9931203888   -0.4318116662
C        1.2546540312   -0.6521733429   -1.4826460410
N        1.2065459475   -0.1227488618   -0.1075378825
N       -0.0857582757   -0.1236641656    0.4371822742
O       -0.6985611024    1.1826414136    0.1902198991
H       -0.0675079942   -2.3108998330   -1.0335032599
H        0.9164262438   -2.5412731676   -2.4940171390
H        1.6592388230   -2.6952759818   -0.8842175929
H        2.8806199583    0.6852721323   -2.0642231509
H        2.7422643114   -0.7724459816   -3.0574556486
H        3.4129945758   -0.8802895902   -1.4166871093
H       -1.0345377712   -0.2561270155    2.2918068245
H        0.4186076225   -1.2716744206    2.0865711622
H        0.5902349169    0.4855679640    2.3742297225
H       -2.3713576693    1.9961071997   -0.5973312475
H       -2.6507434000    0.4293657515    0.2157938899
H       -1.8678694141    0.4696045933   -1.3899397646
H        0.5246375000   -0.1292099979   -2.1218081886
H        1.5977363631    0.8213235788   -0.0579181547
22   
torsion grid (165,)
C        0.8251539502   -2.0832650594   -1.6055984853
C        2.6830117391   -0.4037800595   -1.9853309769
C        0.0121280151   -0.1428860929    1.9447040883
C       -1.9678363992    0.8326805614   -0.4591197743
C        1.2621408047   -0.6253164493   -1.4635808580
N        1.2362628500   -0.2308916387   -0.0423443547
N       -0.0577658131   -0.1839752237    0.4838115504
O       -0.6757284310    1.0954558470    0.0778343590
H       -0.1693078729   -2.2308138846   -1.1771052682
H        0.7959100162   -2.3719639988   -2.6618597742
H        1.5259765301   -2.7428889577   -1.0822809569
H        2.9795835788    0.6491572403   -1.9077225918
H        2.7513612312   -0.6915786077   -3.0387984815
H        3.3998963231   -1.0051038897   -1.4158140073
H       -1.0014132525   -0.0454989469    2.3406096005
H        0.4489262091   -1.0841055034    2.2844340232
H        0.6218229967    0.6982339118    2.3085869460
H       -2.3730434530    1.8051603505   -0.7544498381
H       -2.6314357623    0.3784739550    0.2888581509
H       -1.9121455011    0.1728830108   -1.3332438350
H        0.5764525498    0.0117555827   -2.0434992494
H        1.6866714985    0.6830951963    0.0770292646
22   
torsion grid (180,)
C        0.7312486251   -2.0013575183   -1.7269150594
C        2.6978698563   -0.4188778457   -1.9288988734
C        0.0563285474   -0.0080603248    1.9871479958
C       -1.9588404090    0.6712775706   -0.4929098803
C        1.2609011411   -0.5964288516   -1.4353350888
N        1.2500268282   -0.3472855379    0.0196156490
N       -0.0444810501   -0.2543895794    0.5473552026
O       -0.6705596144    0.9907025102    0.0184472110
H       -0.2724551448   -2.1316549283   -1.3146529032
H        0.6894738683   -2.1771074764   -2.8072328296
H        1.3847535439   -2.7554591164   -1.2751562199
H        3.0633382912    0.5984512789   -1.7440469368
H        2.7542712815   -0.6009070527   -3.0064278663
H        3.3690514062   -1.1220858086   -1.4242283783
H       -0.9489837885    0.1369480754    2.3872027211
H        0.5122652075   -0.8859573576    2.4505903411
H        0.6619263556    0.8840199659    2.2089886495
H       -2.3723939728    1.6113236042   -0.8706949287
H       -2.6193995946    0.2769159941    0.2909813101
H       -1.8997227696   -0.0599579279   -1.3082624578
H        0.6237889493    0.1416616488   -1.9427644931
H        1.7482142495    0.5330560211    0.2023163666
