
  -OEChem-12122420533D

 69 71  0     0  0  0  0  0  0999 V2000
    2.9141    2.6448    1.3076 C   0  0  0  0  0  0  0  0  0  0  0  0
    2.4492    1.6065    0.2822 C   0  0  0  0  0  0  0  0  0  0  0  0
    1.2140    0.8407    0.7677 C   0  0  0  0  0  0  0  0  0  0  0  0
    0.7514   -0.2168   -0.2249 C   0  0  0  0  0  0  0  0  0  0  0  0
    1.4154   -0.5494   -1.1991 O   0  0  0  0  0  0  0  0  0  0  0  0
   -0.5070   -0.7898   -0.0074 N   0  0  0  0  0  0  0  0  0  0  0  0
   -1.1463   -0.8647    1.2944 C   0  0  0  0  0  0  0  0  0  0  0  0
   -0.8100   -2.1918    1.9862 C   0  0  0  0  0  0  0  0  0  0  0  0
   -1.1762   -3.3613    1.1066 N   0  3  0  0  0  0  0  0  0  0  0  0
   -0.5793   -3.2255   -0.2813 C   0  0  0  0  0  0  0  0  0  0  0  0
   -0.9227   -1.8692   -0.8922 C   0  0  0  0  0  0  0  0  0  0  0  0
   -0.8102   -4.6952    1.7111 C   0  0  0  0  0  0  0  0  0  0  0  0
   -1.4686   -4.9884    3.0633 C   0  0  0  0  0  0  0  0  0  0  0  0
   -2.9894   -4.7806    3.1286 C   0  0  0  0  0  0  0  0  0  0  0  0
   -3.7852   -5.6309    2.1224 C   0  0  0  0  0  0  0  0  0  0  0  0
   -5.1307   -5.1156    1.9070 N   0  0  0  0  0  0  0  0  0  0  0  0
   -5.3916   -4.0377    1.1455 C   0  0  0  0  0  0  0  0  0  0  0  0
   -4.2903   -3.0965    0.2856 S   0  0  0  0  0  0  0  0  0  0  0  0
   -6.7680   -3.8247    1.1437 N   0  0  0  0  0  0  0  0  0  0  0  0
   -7.4334   -4.8052    1.9028 C   0  0  0  0  0  0  0  0  0  0  0  0
   -8.6267   -4.8847    2.0738 O   0  0  0  0  0  0  0  0  0  0  0  0
   -6.3549   -5.7396    2.4545 C   0  0  0  0  0  0  0  0  0  0  0  0
   -6.5744   -7.1540    1.8963 C   0  0  0  0  0  0  0  0  0  0  0  0
   -6.3748   -5.7151    3.9884 C   0  0  0  0  0  0  0  0  0  0  0  0
   -7.4433   -2.7442    0.4938 C   0  0  0  0  0  0  0  0  0  0  0  0
   -8.4269   -3.0189   -0.4545 C   0  0  0  0  0  0  0  0  0  0  0  0
   -9.0938   -1.9615   -1.0703 C   0  0  0  0  0  0  0  0  0  0  0  0
   -8.7735   -0.6337   -0.7478 C   0  0  0  0  0  0  0  0  0  0  0  0
   -7.7831   -0.3727    0.2221 C   0  0  0  0  0  0  0  0  0  0  0  0
   -7.1317   -1.4297    0.8462 C   0  0  0  0  0  0  0  0  0  0  0  0
   -7.4179    1.0513    0.5893 C   0  0  0  0  0  0  0  0  0  0  0  0
   -8.4806    1.7341    1.0577 F   0  0  0  0  0  0  0  0  0  0  0  0
   -6.4611    1.0805    1.5518 F   0  0  0  0  0  0  0  0  0  0  0  0
   -6.9315    1.7235   -0.4766 F   0  0  0  0  0  0  0  0  0  0  0  0
   -9.4728    0.4223   -1.4262 C   0  0  0  0  0  0  0  0  0  0  0  0
  -10.0561    1.2499   -1.9999 N   0  0  0  0  0  0  0  0  0  0  0  0
    3.7937    3.1832    0.9428 H   0  0  0  0  0  0  0  0  0  0  0  0
    3.1859    2.1746    2.2601 H   0  0  0  0  0  0  0  0  0  0  0  0
    2.1337    3.3866    1.5121 H   0  0  0  0  0  0  0  0  0  0  0  0
    2.2148    2.0927   -0.6698 H   0  0  0  0  0  0  0  0  0  0  0  0
    3.2514    0.8946    0.0686 H   0  0  0  0  0  0  0  0  0  0  0  0
    1.4415    0.3517    1.7262 H   0  0  0  0  0  0  0  0  0  0  0  0
    0.3915    1.5380    0.9688 H   0  0  0  0  0  0  0  0  0  0  0  0
   -0.8252   -0.0484    1.9393 H   0  0  0  0  0  0  0  0  0  0  0  0
   -2.2323   -0.7740    1.1729 H   0  0  0  0  0  0  0  0  0  0  0  0
    0.2619   -2.2672    2.1885 H   0  0  0  0  0  0  0  0  0  0  0  0
   -1.3588   -2.2937    2.9230 H   0  0  0  0  0  0  0  0  0  0  0  0
   -2.2197   -3.3470    0.9700 H   0  0  0  0  0  0  0  0  0  0  0  0
    0.5027   -3.3409   -0.1843 H   0  0  0  0  0  0  0  0  0  0  0  0
   -0.9814   -4.0462   -0.8793 H   0  0  0  0  0  0  0  0  0  0  0  0
   -1.9983   -1.7885   -1.0811 H   0  0  0  0  0  0  0  0  0  0  0  0
   -0.3947   -1.7717   -1.8405 H   0  0  0  0  0  0  0  0  0  0  0  0
   -1.0867   -5.4412    0.9635 H   0  0  0  0  0  0  0  0  0  0  0  0
    0.2786   -4.7130    1.8049 H   0  0  0  0  0  0  0  0  0  0  0  0
   -0.9945   -4.3921    3.8485 H   0  0  0  0  0  0  0  0  0  0  0  0
   -1.2202   -6.0302    3.2962 H   0  0  0  0  0  0  0  0  0  0  0  0
   -3.2351   -3.7273    2.9631 H   0  0  0  0  0  0  0  0  0  0  0  0
   -3.3279   -5.0101    4.1430 H   0  0  0  0  0  0  0  0  0  0  0  0
   -3.8717   -6.6603    2.4750 H   0  0  0  0  0  0  0  0  0  0  0  0
   -3.2909   -5.6689    1.1481 H   0  0  0  0  0  0  0  0  0  0  0  0
   -7.5690   -7.4991    2.1875 H   0  0  0  0  0  0  0  0  0  0  0  0
   -5.8378   -7.8529    2.3020 H   0  0  0  0  0  0  0  0  0  0  0  0
   -6.5069   -7.1630    0.8049 H   0  0  0  0  0  0  0  0  0  0  0  0
   -7.3517   -6.0548    4.3400 H   0  0  0  0  0  0  0  0  0  0  0  0
   -6.1997   -4.7060    4.3713 H   0  0  0  0  0  0  0  0  0  0  0  0
   -5.6114   -6.3866    4.3923 H   0  0  0  0  0  0  0  0  0  0  0  0
   -8.6745   -4.0445   -0.7065 H   0  0  0  0  0  0  0  0  0  0  0  0
   -9.8621   -2.1567   -1.8107 H   0  0  0  0  0  0  0  0  0  0  0  0
   -6.3795   -1.2317    1.5990 H   0  0  0  0  0  0  0  0  0  0  0  0
  1  2  1  0  0  0  0
  1 37  1  0  0  0  0
  1 38  1  0  0  0  0
  1 39  1  0  0  0  0
  2  3  1  0  0  0  0
  2 40  1  0  0  0  0
  2 41  1  0  0  0  0
  3  4  1  0  0  0  0
  3 42  1  0  0  0  0
  3 43  1  0  0  0  0
  4  5  2  0  0  0  0
  4  6  1  0  0  0  0
  6  7  1  0  0  0  0
  6 11  1  0  0  0  0
  7  8  1  0  0  0  0
  7 44  1  0  0  0  0
  7 45  1  0  0  0  0
  8  9  1  0  0  0  0
  8 46  1  0  0  0  0
  8 47  1  0  0  0  0
  9 10  1  0  0  0  0
  9 12  1  0  0  0  0
  9 48  1  0  0  0  0
 10 11  1  0  0  0  0
 10 49  1  0  0  0  0
 10 50  1  0  0  0  0
 11 51  1  0  0  0  0
 11 52  1  0  0  0  0
 12 13  1  0  0  0  0
 12 53  1  0  0  0  0
 12 54  1  0  0  0  0
 13 14  1  0  0  0  0
 13 55  1  0  0  0  0
 13 56  1  0  0  0  0
 14 15  1  0  0  0  0
 14 57  1  0  0  0  0
 14 58  1  0  0  0  0
 15 16  1  0  0  0  0
 15 59  1  0  0  0  0
 15 60  1  0  0  0  0
 16 17  1  0  0  0  0
 16 22  1  0  0  0  0
 17 18  2  0  0  0  0
 17 19  1  0  0  0  0
 19 20  1  0  0  0  0
 19 25  1  0  0  0  0
 20 21  2  0  0  0  0
 20 22  1  0  0  0  0
 22 23  1  0  0  0  0
 22 24  1  0  0  0  0
 23 61  1  0  0  0  0
 23 62  1  0  0  0  0
 23 63  1  0  0  0  0
 24 64  1  0  0  0  0
 24 65  1  0  0  0  0
 24 66  1  0  0  0  0
 25 26  2  0  0  0  0
 25 30  1  0  0  0  0
 26 27  1  0  0  0  0
 26 67  1  0  0  0  0
 27 28  2  0  0  0  0
 27 68  1  0  0  0  0
 28 29  1  0  0  0  0
 28 35  1  0  0  0  0
 29 30  2  0  0  0  0
 29 31  1  0  0  0  0
 30 69  1  0  0  0  0
 31 32  1  0  0  0  0
 31 33  1  0  0  0  0
 31 34  1  0  0  0  0
 35 36  3  0  0  0  0
M  CHG  1   9   1
M  END
$$$$
