69
1 1 C25F3H33N5O2S
C                     1.047045824971    -3.641498255909    -5.788417243451
C                     1.547654985873    -4.351407592467    -4.526234148310
C                     0.640150286173    -4.067174569086    -3.326507108789
C                     1.087200103932    -4.777874009554    -2.058391656652
O                     2.056883348140    -5.520765776296    -2.010547035793
N                     0.337477225619    -4.536502244696    -0.894457406938
C                    -0.986288110690    -3.937677719409    -0.920619055091
C                    -1.252212152926    -3.187485714916     0.380094274151
N                    -1.078495466906    -4.112582593479     1.553128657354
C                     0.322396262502    -4.672395645618     1.559372578016
C                     0.583176268325    -5.406412263854     0.249543568058
C                    -1.518319846113    -3.492423548095     2.853208783730
C                    -1.684606005661    -4.527370715123     3.986291483468
C                    -3.000268305348    -4.375306806957     4.776933651067
C                    -4.253185068314    -5.038042974451     4.171235965789
N                    -4.745990907983    -4.459544050574     2.914813012211
C                    -4.438336241961    -4.932906337283     1.692873611103
S                    -3.433222249826    -6.234790772735     1.329675832995
N                    -5.112210520802    -4.152336454627     0.738838428061
C                    -5.902895546463    -3.169255639385     1.362927487377
O                    -6.535501575398    -2.304706074244     0.802994693018
C                    -5.796333210637    -3.413532068536     2.866803229853
C                    -7.146601302730    -3.951924609282     3.376318003993
C                    -5.396760886464    -2.122299525826     3.587726818540
C                    -4.824760777328    -4.164382628776    -0.661358994387
C                    -4.907650534679    -5.343136258728    -1.403173245201
C                    -4.475395797341    -5.347276763479    -2.728560880086
C                    -3.974520238048    -4.177309634266    -3.320516372964
C                    -3.971487682207    -2.975207790302    -2.583247325756
C                    -4.400628291036    -2.973799766164    -1.260940952183
C                    -3.435429283927    -1.696417913058    -3.193710802161
F                    -4.062561768383    -1.372290780693    -4.332864767912
F                    -3.551417816364    -0.654923516867    -2.339269421345
F                    -2.107859168764    -1.825728206601    -3.475689154908
C                    -3.434920178408    -4.253159165089    -4.649279264143
N                    -2.952557920872    -4.355503731000    -5.703470537239
H                     1.699784501430    -3.858661904372    -6.639080642948
H                     1.028553378088    -2.553576073798    -5.654711588120
H                     0.033447995002    -3.960974666732    -6.054527021596
H                     1.593996965709    -5.432108669987    -4.690293789452
H                     2.568403762119    -4.036958492148    -4.288186193138
H                     0.592686307773    -2.986299222927    -3.139965977113
H                    -0.386913309897    -4.374586686733    -3.564586470628
H                    -1.064224097295    -3.220340190050    -1.734324501232
H                    -1.770766316304    -4.695742235055    -1.067377871760
H                    -0.558084156107    -2.354037841818     0.512365091934
H                    -2.276540765376    -2.814677269020     0.404376200183
H                    -1.737739863868    -4.911354833363     1.396695666342
H                     1.004364327947    -3.829181410215     1.694135111364
H                     0.409526142214    -5.350813778663     2.409019920226
H                    -0.047561828558    -6.307475077698     0.199655016098
H                     1.622333648617    -5.734785461239     0.214462246428
H                    -0.792280997670    -2.715599784999     3.104748148930
H                    -2.466319890069    -3.000023216923     2.634086020689
H                    -0.846246246192    -4.429878878862     4.680634061646
H                    -1.636601652660    -5.542199554162     3.582083656890
H                    -3.191143795262    -3.318808173052     4.990831662294
H                    -2.862422293437    -4.856123761202     5.751090167824
H                    -5.067336367422    -4.969078652985     4.896102882505
H                    -4.064671497379    -6.098242948940     3.990666006257
H                    -7.926747965328    -3.219407118334     3.156767898605
H                    -7.118083821136    -4.108140505344     4.457668000943
H                    -7.404311943145    -4.896248056981     2.889386131907
H                    -6.150800956506    -1.358409599898     3.385754498393
H                    -4.430644640620    -1.745772334708     3.239500199277
H                    -5.347635773174    -2.280568692966     4.667873958647
H                    -5.277360563338    -6.253375164159    -0.947494674429
H                    -4.506494716496    -6.263701734627    -3.308402204836
H                    -4.400191455249    -2.048600385975    -0.698034975666
