69
1 1 C25F3H33N5O2S
C                     0.121897049999    -2.336894844447    -8.574857754096
C                     0.008037095850    -3.430854091848    -7.509113039627
C                    -0.950932119629    -3.030570548212    -6.382865113365
C                    -1.059214667689    -4.093304048557    -5.298972785051
O                    -0.296841321313    -5.050138563168    -5.226756050487
N                    -2.108012476694    -3.964915348876    -4.380693629874
C                    -2.717284542360    -2.692386542927    -4.029760909484
C                    -2.016766418508    -2.073971432792    -2.813634959252
N                    -1.969639552450    -3.042760039425    -1.650621869476
C                    -1.404097008691    -4.379849782727    -2.071984816875
C                    -2.159247816406    -4.921110135865    -3.283704155012
C                    -1.222616335179    -2.429916001128    -0.488012658330
C                    -1.338226347158    -3.173288043815     0.844447530519
C                    -2.759487435639    -3.219091098995     1.440009556592
C                    -3.532873520697    -4.509888218821     1.101040845004
N                    -4.975266274483    -4.345077490004     1.200382928214
C                    -5.709883069636    -3.744533916673     0.246588758933
S                    -5.166282901251    -3.123444186162    -1.220842945927
N                    -7.040720023266    -3.737721897817     0.656202263013
C                    -7.189258611064    -4.373568004727     1.903258758794
O                    -8.225995635338    -4.530372388182     2.503247262274
C                    -5.793138165642    -4.827843451542     2.334120542960
C                    -5.769002398355    -6.360031862865     2.443326494669
C                    -5.404623078662    -4.150057960436     3.654504219931
C                    -8.131403960072    -3.157501835645    -0.064719870436
C                    -9.219529346232    -3.952848108183    -0.420078745436
C                   -10.285060627656    -3.380140721954    -1.111505583642
C                   -10.261123640497    -2.019647105781    -1.455306963772
C                    -9.158623853923    -1.225389229055    -1.076585248303
C                    -8.104682934565    -1.795995051493    -0.372782378626
C                    -9.108401327642     0.246584599600    -1.433497448919
F                   -10.159758862067     0.918228158369    -0.924890314239
F                    -7.982280758459     0.830719985744    -0.954221247041
F                    -9.112376490973     0.425767336949    -2.773064127867
C                   -11.371074903668    -1.482240776727    -2.192503106235
N                   -12.284183140229    -1.087113779253    -2.796221451783
H                     0.807000897884    -2.641432175147    -9.371347800840
H                     0.503610791627    -1.400983943829    -8.150223195051
H                    -0.848316366273    -2.122394269714    -9.037163819632
H                    -0.343163128913    -4.364051197102    -7.960471714575
H                     0.990131450687    -3.652176803307    -7.082006566829
H                    -0.604054367785    -2.092830848196    -5.924832111472
H                    -1.947247836831    -2.820365807616    -6.790341895120
H                    -2.656585085198    -1.985206559544    -4.855480234088
H                    -3.780507457539    -2.845943064208    -3.816008977625
H                    -0.982624526901    -1.810768753155    -3.050853492647
H                    -2.544592608008    -1.183687334300    -2.464389848488
H                    -2.973034914591    -3.183929252469    -1.364278508546
H                    -0.349800222950    -4.226951811901    -2.315208728429
H                    -1.477266532114    -5.057020671546    -1.220968710183
H                    -3.206012156144    -5.119373400024    -3.028282841046
H                    -1.689237840868    -5.851089372711    -3.601780188307
H                    -0.177981240492    -2.353304375745    -0.800599028409
H                    -1.618201018023    -1.417181227439    -0.377140608048
H                    -0.681924948086    -2.621525909634     1.524868345302
H                    -0.903388484184    -4.176337525147     0.778076399639
H                    -3.334138992482    -2.356505448069     1.089639346284
H                    -2.701877145696    -3.125228158958     2.527363545256
H                    -3.239292682434    -5.315279878224     1.777191919377
H                    -3.313544082206    -4.859043745175     0.088656714718
H                    -6.515306199208    -6.675180381995     3.176113675491
H                    -4.789786137823    -6.711584678403     2.779949056759
H                    -6.002352408210    -6.828663897989     1.483216997554
H                    -6.126828625600    -4.427771938631     4.425595274010
H                    -5.402479699288    -3.061101951267     3.556458499176
H                    -4.413025531930    -4.480463812156     3.977214427397
H                    -9.239089884398    -5.004980691426    -0.156917087617
H                   -11.139703005852    -3.984233216957    -1.396806962893
H                    -7.262848539322    -1.185295228671    -0.072550634800
