
  -OEChem-12122420533D

 69 71  0     0  0  0  0  0  0999 V2000
    1.0470   -3.6415   -5.7884 C   0  0  0  0  0  0  0  0  0  0  0  0
    1.5477   -4.3514   -4.5262 C   0  0  0  0  0  0  0  0  0  0  0  0
    0.6402   -4.0672   -3.3265 C   0  0  0  0  0  0  0  0  0  0  0  0
    1.0872   -4.7779   -2.0584 C   0  0  0  0  0  0  0  0  0  0  0  0
    2.0569   -5.5208   -2.0105 O   0  0  0  0  0  0  0  0  0  0  0  0
    0.3375   -4.5365   -0.8945 N   0  0  0  0  0  0  0  0  0  0  0  0
   -0.9863   -3.9377   -0.9206 C   0  0  0  0  0  0  0  0  0  0  0  0
   -1.2522   -3.1875    0.3801 C   0  0  0  0  0  0  0  0  0  0  0  0
   -1.0785   -4.1126    1.5531 N   0  3  0  0  0  0  0  0  0  0  0  0
    0.3224   -4.6724    1.5594 C   0  0  0  0  0  0  0  0  0  0  0  0
    0.5832   -5.4064    0.2495 C   0  0  0  0  0  0  0  0  0  0  0  0
   -1.5183   -3.4924    2.8532 C   0  0  0  0  0  0  0  0  0  0  0  0
   -1.6846   -4.5274    3.9863 C   0  0  0  0  0  0  0  0  0  0  0  0
   -3.0003   -4.3753    4.7769 C   0  0  0  0  0  0  0  0  0  0  0  0
   -4.2532   -5.0380    4.1712 C   0  0  0  0  0  0  0  0  0  0  0  0
   -4.7460   -4.4595    2.9148 N   0  0  0  0  0  0  0  0  0  0  0  0
   -4.4383   -4.9329    1.6929 C   0  0  0  0  0  0  0  0  0  0  0  0
   -3.4332   -6.2348    1.3297 S   0  0  0  0  0  0  0  0  0  0  0  0
   -5.1122   -4.1523    0.7388 N   0  0  0  0  0  0  0  0  0  0  0  0
   -5.9029   -3.1693    1.3629 C   0  0  0  0  0  0  0  0  0  0  0  0
   -6.5355   -2.3047    0.8030 O   0  0  0  0  0  0  0  0  0  0  0  0
   -5.7963   -3.4135    2.8668 C   0  0  0  0  0  0  0  0  0  0  0  0
   -7.1466   -3.9519    3.3763 C   0  0  0  0  0  0  0  0  0  0  0  0
   -5.3968   -2.1223    3.5877 C   0  0  0  0  0  0  0  0  0  0  0  0
   -4.8248   -4.1644   -0.6614 C   0  0  0  0  0  0  0  0  0  0  0  0
   -4.9077   -5.3431   -1.4032 C   0  0  0  0  0  0  0  0  0  0  0  0
   -4.4754   -5.3473   -2.7286 C   0  0  0  0  0  0  0  0  0  0  0  0
   -3.9745   -4.1773   -3.3205 C   0  0  0  0  0  0  0  0  0  0  0  0
   -3.9715   -2.9752   -2.5832 C   0  0  0  0  0  0  0  0  0  0  0  0
   -4.4006   -2.9738   -1.2609 C   0  0  0  0  0  0  0  0  0  0  0  0
   -3.4354   -1.6964   -3.1937 C   0  0  0  0  0  0  0  0  0  0  0  0
   -4.0626   -1.3723   -4.3329 F   0  0  0  0  0  0  0  0  0  0  0  0
   -3.5514   -0.6549   -2.3393 F   0  0  0  0  0  0  0  0  0  0  0  0
   -2.1079   -1.8257   -3.4757 F   0  0  0  0  0  0  0  0  0  0  0  0
   -3.4349   -4.2532   -4.6493 C   0  0  0  0  0  0  0  0  0  0  0  0
   -2.9526   -4.3555   -5.7035 N   0  0  0  0  0  0  0  0  0  0  0  0
    1.6998   -3.8587   -6.6391 H   0  0  0  0  0  0  0  0  0  0  0  0
    1.0286   -2.5536   -5.6547 H   0  0  0  0  0  0  0  0  0  0  0  0
    0.0334   -3.9610   -6.0545 H   0  0  0  0  0  0  0  0  0  0  0  0
    1.5940   -5.4321   -4.6903 H   0  0  0  0  0  0  0  0  0  0  0  0
    2.5684   -4.0370   -4.2882 H   0  0  0  0  0  0  0  0  0  0  0  0
    0.5927   -2.9863   -3.1400 H   0  0  0  0  0  0  0  0  0  0  0  0
   -0.3869   -4.3746   -3.5646 H   0  0  0  0  0  0  0  0  0  0  0  0
   -1.0642   -3.2203   -1.7343 H   0  0  0  0  0  0  0  0  0  0  0  0
   -1.7708   -4.6957   -1.0674 H   0  0  0  0  0  0  0  0  0  0  0  0
   -0.5581   -2.3540    0.5124 H   0  0  0  0  0  0  0  0  0  0  0  0
   -2.2765   -2.8147    0.4044 H   0  0  0  0  0  0  0  0  0  0  0  0
   -1.7377   -4.9114    1.3967 H   0  0  0  0  0  0  0  0  0  0  0  0
    1.0044   -3.8292    1.6941 H   0  0  0  0  0  0  0  0  0  0  0  0
    0.4095   -5.3508    2.4090 H   0  0  0  0  0  0  0  0  0  0  0  0
   -0.0476   -6.3075    0.1997 H   0  0  0  0  0  0  0  0  0  0  0  0
    1.6223   -5.7348    0.2145 H   0  0  0  0  0  0  0  0  0  0  0  0
   -0.7923   -2.7156    3.1047 H   0  0  0  0  0  0  0  0  0  0  0  0
   -2.4663   -3.0000    2.6341 H   0  0  0  0  0  0  0  0  0  0  0  0
   -0.8462   -4.4299    4.6806 H   0  0  0  0  0  0  0  0  0  0  0  0
   -1.6366   -5.5422    3.5821 H   0  0  0  0  0  0  0  0  0  0  0  0
   -3.1911   -3.3188    4.9908 H   0  0  0  0  0  0  0  0  0  0  0  0
   -2.8624   -4.8561    5.7511 H   0  0  0  0  0  0  0  0  0  0  0  0
   -5.0673   -4.9691    4.8961 H   0  0  0  0  0  0  0  0  0  0  0  0
   -4.0647   -6.0982    3.9907 H   0  0  0  0  0  0  0  0  0  0  0  0
   -7.9267   -3.2194    3.1568 H   0  0  0  0  0  0  0  0  0  0  0  0
   -7.1181   -4.1081    4.4577 H   0  0  0  0  0  0  0  0  0  0  0  0
   -7.4043   -4.8962    2.8894 H   0  0  0  0  0  0  0  0  0  0  0  0
   -6.1508   -1.3584    3.3858 H   0  0  0  0  0  0  0  0  0  0  0  0
   -4.4306   -1.7458    3.2395 H   0  0  0  0  0  0  0  0  0  0  0  0
   -5.3476   -2.2806    4.6679 H   0  0  0  0  0  0  0  0  0  0  0  0
   -5.2774   -6.2534   -0.9475 H   0  0  0  0  0  0  0  0  0  0  0  0
   -4.5065   -6.2637   -3.3084 H   0  0  0  0  0  0  0  0  0  0  0  0
   -4.4002   -2.0486   -0.6980 H   0  0  0  0  0  0  0  0  0  0  0  0
  1  2  1  0  0  0  0
  1 37  1  0  0  0  0
  1 38  1  0  0  0  0
  1 39  1  0  0  0  0
  2  3  1  0  0  0  0
  2 40  1  0  0  0  0
  2 41  1  0  0  0  0
  3  4  1  0  0  0  0
  3 42  1  0  0  0  0
  3 43  1  0  0  0  0
  4  5  2  0  0  0  0
  4  6  1  0  0  0  0
  6  7  1  0  0  0  0
  6 11  1  0  0  0  0
  7  8  1  0  0  0  0
  7 44  1  0  0  0  0
  7 45  1  0  0  0  0
  8  9  1  0  0  0  0
  8 46  1  0  0  0  0
  8 47  1  0  0  0  0
  9 10  1  0  0  0  0
  9 12  1  0  0  0  0
  9 48  1  0  0  0  0
 10 11  1  0  0  0  0
 10 49  1  0  0  0  0
 10 50  1  0  0  0  0
 11 51  1  0  0  0  0
 11 52  1  0  0  0  0
 12 13  1  0  0  0  0
 12 53  1  0  0  0  0
 12 54  1  0  0  0  0
 13 14  1  0  0  0  0
 13 55  1  0  0  0  0
 13 56  1  0  0  0  0
 14 15  1  0  0  0  0
 14 57  1  0  0  0  0
 14 58  1  0  0  0  0
 15 16  1  0  0  0  0
 15 59  1  0  0  0  0
 15 60  1  0  0  0  0
 16 17  1  0  0  0  0
 16 22  1  0  0  0  0
 17 18  2  0  0  0  0
 17 19  1  0  0  0  0
 19 20  1  0  0  0  0
 19 25  1  0  0  0  0
 20 21  2  0  0  0  0
 20 22  1  0  0  0  0
 22 23  1  0  0  0  0
 22 24  1  0  0  0  0
 23 61  1  0  0  0  0
 23 62  1  0  0  0  0
 23 63  1  0  0  0  0
 24 64  1  0  0  0  0
 24 65  1  0  0  0  0
 24 66  1  0  0  0  0
 25 26  2  0  0  0  0
 25 30  1  0  0  0  0
 26 27  1  0  0  0  0
 26 67  1  0  0  0  0
 27 28  2  0  0  0  0
 27 68  1  0  0  0  0
 28 29  1  0  0  0  0
 28 35  1  0  0  0  0
 29 30  2  0  0  0  0
 29 31  1  0  0  0  0
 30 69  1  0  0  0  0
 31 32  1  0  0  0  0
 31 33  1  0  0  0  0
 31 34  1  0  0  0  0
 35 36  3  0  0  0  0
M  CHG  1   9   1
M  END
$$$$
