
  -OEChem-12122420533D

 69 71  0     0  0  0  0  0  0999 V2000
    4.3935    1.5998    4.0102 C   0  0  0  0  0  0  0  0  0  0  0  0
    3.7696    1.5421    2.6128 C   0  0  0  0  0  0  0  0  0  0  0  0
    2.6202    0.5311    2.5453 C   0  0  0  0  0  0  0  0  0  0  0  0
    1.9811    0.4619    1.1668 C   0  0  0  0  0  0  0  0  0  0  0  0
    2.3449    1.1495    0.2250 O   0  0  0  0  0  0  0  0  0  0  0  0
    0.9355   -0.4577    0.9878 N   0  0  0  0  0  0  0  0  0  0  0  0
    0.3028   -1.2385    2.0299 C   0  0  0  0  0  0  0  0  0  0  0  0
    0.1126   -2.6850    1.5701 C   0  0  0  0  0  0  0  0  0  0  0  0
   -0.6511   -2.7319    0.2661 N   0  3  0  0  0  0  0  0  0  0  0  0
    0.0331   -1.8760   -0.7852 C   0  0  0  0  0  0  0  0  0  0  0  0
    0.2126   -0.4544   -0.2723 C   0  0  0  0  0  0  0  0  0  0  0  0
   -0.9034   -4.1437   -0.2290 C   0  0  0  0  0  0  0  0  0  0  0  0
   -1.8055   -4.9563    0.6975 C   0  0  0  0  0  0  0  0  0  0  0  0
   -3.1231   -4.2476    1.0416 C   0  0  0  0  0  0  0  0  0  0  0  0
   -4.1888   -5.2343    1.5459 C   0  0  0  0  0  0  0  0  0  0  0  0
   -5.4766   -4.5995    1.7584 N   0  0  0  0  0  0  0  0  0  0  0  0
   -6.3144   -4.2863    0.7327 C   0  0  0  0  0  0  0  0  0  0  0  0
   -6.0187   -4.4820   -0.8900 S   0  0  0  0  0  0  0  0  0  0  0  0
   -7.4940   -3.7797    1.3060 N   0  0  0  0  0  0  0  0  0  0  0  0
   -7.4361   -3.7950    2.7033 C   0  0  0  0  0  0  0  0  0  0  0  0
   -8.2966   -3.4124    3.4656 O   0  0  0  0  0  0  0  0  0  0  0  0
   -6.0829   -4.3981    3.0856 C   0  0  0  0  0  0  0  0  0  0  0  0
   -6.3225   -5.7261    3.8232 C   0  0  0  0  0  0  0  0  0  0  0  0
   -5.2872   -3.4058    3.9424 C   0  0  0  0  0  0  0  0  0  0  0  0
   -8.6430   -3.3338    0.5843 C   0  0  0  0  0  0  0  0  0  0  0  0
   -8.5353   -2.3151   -0.3623 C   0  0  0  0  0  0  0  0  0  0  0  0
   -9.6743   -1.8870   -1.0384 C   0  0  0  0  0  0  0  0  0  0  0  0
  -10.9250   -2.4622   -0.7628 C   0  0  0  0  0  0  0  0  0  0  0  0
  -11.0215   -3.4822    0.2052 C   0  0  0  0  0  0  0  0  0  0  0  0
   -9.8799   -3.9149    0.8715 C   0  0  0  0  0  0  0  0  0  0  0  0
  -12.3612   -4.1156    0.5234 C   0  0  0  0  0  0  0  0  0  0  0  0
  -12.9083   -4.6837   -0.5732 F   0  0  0  0  0  0  0  0  0  0  0  0
  -12.2409   -5.0820    1.4624 F   0  0  0  0  0  0  0  0  0  0  0  0
  -13.2380   -3.2020    0.9922 F   0  0  0  0  0  0  0  0  0  0  0  0
  -12.0685   -1.9772   -1.4851 C   0  0  0  0  0  0  0  0  0  0  0  0
  -12.9629   -1.5502   -2.0953 N   0  0  0  0  0  0  0  0  0  0  0  0
    5.2098    2.3271    4.0395 H   0  0  0  0  0  0  0  0  0  0  0  0
    4.8057    0.6286    4.3078 H   0  0  0  0  0  0  0  0  0  0  0  0
    3.6586    1.8976    4.7670 H   0  0  0  0  0  0  0  0  0  0  0  0
    3.3947    2.5277    2.3222 H   0  0  0  0  0  0  0  0  0  0  0  0
    4.5256    1.2746    1.8687 H   0  0  0  0  0  0  0  0  0  0  0  0
    2.9854   -0.4664    2.8254 H   0  0  0  0  0  0  0  0  0  0  0  0
    1.8502    0.7934    3.2836 H   0  0  0  0  0  0  0  0  0  0  0  0
    0.9137   -1.2559    2.9310 H   0  0  0  0  0  0  0  0  0  0  0  0
   -0.6736   -0.8089    2.3093 H   0  0  0  0  0  0  0  0  0  0  0  0
    1.0737   -3.1686    1.3832 H   0  0  0  0  0  0  0  0  0  0  0  0
   -0.4484   -3.2617    2.3058 H   0  0  0  0  0  0  0  0  0  0  0  0
   -1.5728   -2.3129    0.4397 H   0  0  0  0  0  0  0  0  0  0  0  0
    0.9949   -2.3485   -0.9946 H   0  0  0  0  0  0  0  0  0  0  0  0
   -0.5903   -1.9057   -1.6812 H   0  0  0  0  0  0  0  0  0  0  0  0
   -0.7682    0.0343   -0.1588 H   0  0  0  0  0  0  0  0  0  0  0  0
    0.7868    0.1252   -0.9968 H   0  0  0  0  0  0  0  0  0  0  0  0
   -1.3732   -4.0319   -1.2092 H   0  0  0  0  0  0  0  0  0  0  0  0
    0.0770   -4.6060   -0.3648 H   0  0  0  0  0  0  0  0  0  0  0  0
   -1.2698   -5.2627    1.6020 H   0  0  0  0  0  0  0  0  0  0  0  0
   -2.0227   -5.8803    0.1502 H   0  0  0  0  0  0  0  0  0  0  0  0
   -3.5333   -3.7649    0.1471 H   0  0  0  0  0  0  0  0  0  0  0  0
   -2.9747   -3.4743    1.8078 H   0  0  0  0  0  0  0  0  0  0  0  0
   -3.8744   -5.6894    2.4881 H   0  0  0  0  0  0  0  0  0  0  0  0
   -4.3112   -6.0353    0.8100 H   0  0  0  0  0  0  0  0  0  0  0  0
   -6.9313   -5.5384    4.7107 H   0  0  0  0  0  0  0  0  0  0  0  0
   -5.3769   -6.1724    4.1446 H   0  0  0  0  0  0  0  0  0  0  0  0
   -6.8478   -6.4404    3.1832 H   0  0  0  0  0  0  0  0  0  0  0  0
   -5.8435   -3.1859    4.8564 H   0  0  0  0  0  0  0  0  0  0  0  0
   -5.1217   -2.4676    3.4045 H   0  0  0  0  0  0  0  0  0  0  0  0
   -4.3192   -3.8334    4.2238 H   0  0  0  0  0  0  0  0  0  0  0  0
   -7.5717   -1.8670   -0.5752 H   0  0  0  0  0  0  0  0  0  0  0  0
   -9.6069   -1.0991   -1.7810 H   0  0  0  0  0  0  0  0  0  0  0  0
   -9.9543   -4.6971    1.6166 H   0  0  0  0  0  0  0  0  0  0  0  0
  1  2  1  0  0  0  0
  1 37  1  0  0  0  0
  1 38  1  0  0  0  0
  1 39  1  0  0  0  0
  2  3  1  0  0  0  0
  2 40  1  0  0  0  0
  2 41  1  0  0  0  0
  3  4  1  0  0  0  0
  3 42  1  0  0  0  0
  3 43  1  0  0  0  0
  4  5  2  0  0  0  0
  4  6  1  0  0  0  0
  6  7  1  0  0  0  0
  6 11  1  0  0  0  0
  7  8  1  0  0  0  0
  7 44  1  0  0  0  0
  7 45  1  0  0  0  0
  8  9  1  0  0  0  0
  8 46  1  0  0  0  0
  8 47  1  0  0  0  0
  9 10  1  0  0  0  0
  9 12  1  0  0  0  0
  9 48  1  0  0  0  0
 10 11  1  0  0  0  0
 10 49  1  0  0  0  0
 10 50  1  0  0  0  0
 11 51  1  0  0  0  0
 11 52  1  0  0  0  0
 12 13  1  0  0  0  0
 12 53  1  0  0  0  0
 12 54  1  0  0  0  0
 13 14  1  0  0  0  0
 13 55  1  0  0  0  0
 13 56  1  0  0  0  0
 14 15  1  0  0  0  0
 14 57  1  0  0  0  0
 14 58  1  0  0  0  0
 15 16  1  0  0  0  0
 15 59  1  0  0  0  0
 15 60  1  0  0  0  0
 16 17  1  0  0  0  0
 16 22  1  0  0  0  0
 17 18  2  0  0  0  0
 17 19  1  0  0  0  0
 19 20  1  0  0  0  0
 19 25  1  0  0  0  0
 20 21  2  0  0  0  0
 20 22  1  0  0  0  0
 22 23  1  0  0  0  0
 22 24  1  0  0  0  0
 23 61  1  0  0  0  0
 23 62  1  0  0  0  0
 23 63  1  0  0  0  0
 24 64  1  0  0  0  0
 24 65  1  0  0  0  0
 24 66  1  0  0  0  0
 25 26  2  0  0  0  0
 25 30  1  0  0  0  0
 26 27  1  0  0  0  0
 26 67  1  0  0  0  0
 27 28  2  0  0  0  0
 27 68  1  0  0  0  0
 28 29  1  0  0  0  0
 28 35  1  0  0  0  0
 29 30  2  0  0  0  0
 29 31  1  0  0  0  0
 30 69  1  0  0  0  0
 31 32  1  0  0  0  0
 31 33  1  0  0  0  0
 31 34  1  0  0  0  0
 35 36  3  0  0  0  0
M  CHG  1   9   1
M  END
$$$$
