
  -OEChem-12102412483D

 69 71  0     0  0  0  0  0  0999 V2000
    0.1219   -2.3369   -8.5749 C   0  0  0  0  0  0  0  0  0  0  0  0
    0.0080   -3.4309   -7.5091 C   0  0  0  0  0  0  0  0  0  0  0  0
   -0.9509   -3.0306   -6.3829 C   0  0  0  0  0  0  0  0  0  0  0  0
   -1.0592   -4.0933   -5.2990 C   0  0  0  0  0  0  0  0  0  0  0  0
   -0.2968   -5.0501   -5.2268 O   0  0  0  0  0  0  0  0  0  0  0  0
   -2.1080   -3.9649   -4.3807 N   0  0  0  0  0  0  0  0  0  0  0  0
   -2.7173   -2.6924   -4.0298 C   0  0  0  0  0  0  0  0  0  0  0  0
   -2.0168   -2.0740   -2.8136 C   0  0  0  0  0  0  0  0  0  0  0  0
   -1.9696   -3.0428   -1.6506 N   0  3  0  0  0  0  0  0  0  0  0  0
   -1.4041   -4.3798   -2.0720 C   0  0  0  0  0  0  0  0  0  0  0  0
   -2.1592   -4.9211   -3.2837 C   0  0  0  0  0  0  0  0  0  0  0  0
   -1.2226   -2.4299   -0.4880 C   0  0  0  0  0  0  0  0  0  0  0  0
   -1.3382   -3.1733    0.8444 C   0  0  0  0  0  0  0  0  0  0  0  0
   -2.7595   -3.2191    1.4400 C   0  0  0  0  0  0  0  0  0  0  0  0
   -3.5329   -4.5099    1.1010 C   0  0  0  0  0  0  0  0  0  0  0  0
   -4.9753   -4.3451    1.2004 N   0  0  0  0  0  0  0  0  0  0  0  0
   -5.7099   -3.7445    0.2466 C   0  0  0  0  0  0  0  0  0  0  0  0
   -5.1663   -3.1234   -1.2208 S   0  0  0  0  0  0  0  0  0  0  0  0
   -7.0407   -3.7377    0.6562 N   0  0  0  0  0  0  0  0  0  0  0  0
   -7.1893   -4.3736    1.9033 C   0  0  0  0  0  0  0  0  0  0  0  0
   -8.2260   -4.5304    2.5032 O   0  0  0  0  0  0  0  0  0  0  0  0
   -5.7931   -4.8278    2.3341 C   0  0  0  0  0  0  0  0  0  0  0  0
   -5.7690   -6.3600    2.4433 C   0  0  0  0  0  0  0  0  0  0  0  0
   -5.4046   -4.1501    3.6545 C   0  0  0  0  0  0  0  0  0  0  0  0
   -8.1314   -3.1575   -0.0647 C   0  0  0  0  0  0  0  0  0  0  0  0
   -9.2195   -3.9528   -0.4201 C   0  0  0  0  0  0  0  0  0  0  0  0
  -10.2851   -3.3801   -1.1115 C   0  0  0  0  0  0  0  0  0  0  0  0
  -10.2611   -2.0196   -1.4553 C   0  0  0  0  0  0  0  0  0  0  0  0
   -9.1586   -1.2254   -1.0766 C   0  0  0  0  0  0  0  0  0  0  0  0
   -8.1047   -1.7960   -0.3728 C   0  0  0  0  0  0  0  0  0  0  0  0
   -9.1084    0.2466   -1.4335 C   0  0  0  0  0  0  0  0  0  0  0  0
  -10.1598    0.9182   -0.9249 F   0  0  0  0  0  0  0  0  0  0  0  0
   -7.9823    0.8307   -0.9542 F   0  0  0  0  0  0  0  0  0  0  0  0
   -9.1124    0.4258   -2.7731 F   0  0  0  0  0  0  0  0  0  0  0  0
  -11.3711   -1.4822   -2.1925 C   0  0  0  0  0  0  0  0  0  0  0  0
  -12.2842   -1.0871   -2.7962 N   0  0  0  0  0  0  0  0  0  0  0  0
    0.8070   -2.6414   -9.3713 H   0  0  0  0  0  0  0  0  0  0  0  0
    0.5036   -1.4010   -8.1502 H   0  0  0  0  0  0  0  0  0  0  0  0
   -0.8483   -2.1224   -9.0372 H   0  0  0  0  0  0  0  0  0  0  0  0
   -0.3432   -4.3641   -7.9605 H   0  0  0  0  0  0  0  0  0  0  0  0
    0.9901   -3.6522   -7.0820 H   0  0  0  0  0  0  0  0  0  0  0  0
   -0.6041   -2.0928   -5.9248 H   0  0  0  0  0  0  0  0  0  0  0  0
   -1.9472   -2.8204   -6.7903 H   0  0  0  0  0  0  0  0  0  0  0  0
   -2.6566   -1.9852   -4.8555 H   0  0  0  0  0  0  0  0  0  0  0  0
   -3.7805   -2.8459   -3.8160 H   0  0  0  0  0  0  0  0  0  0  0  0
   -0.9826   -1.8108   -3.0509 H   0  0  0  0  0  0  0  0  0  0  0  0
   -2.5446   -1.1837   -2.4644 H   0  0  0  0  0  0  0  0  0  0  0  0
   -2.9730   -3.1839   -1.3643 H   0  0  0  0  0  0  0  0  0  0  0  0
   -0.3498   -4.2270   -2.3152 H   0  0  0  0  0  0  0  0  0  0  0  0
   -1.4773   -5.0570   -1.2210 H   0  0  0  0  0  0  0  0  0  0  0  0
   -3.2060   -5.1194   -3.0283 H   0  0  0  0  0  0  0  0  0  0  0  0
   -1.6892   -5.8511   -3.6018 H   0  0  0  0  0  0  0  0  0  0  0  0
   -0.1780   -2.3533   -0.8006 H   0  0  0  0  0  0  0  0  0  0  0  0
   -1.6182   -1.4172   -0.3771 H   0  0  0  0  0  0  0  0  0  0  0  0
   -0.6819   -2.6215    1.5249 H   0  0  0  0  0  0  0  0  0  0  0  0
   -0.9034   -4.1763    0.7781 H   0  0  0  0  0  0  0  0  0  0  0  0
   -3.3341   -2.3565    1.0896 H   0  0  0  0  0  0  0  0  0  0  0  0
   -2.7019   -3.1252    2.5274 H   0  0  0  0  0  0  0  0  0  0  0  0
   -3.2393   -5.3153    1.7772 H   0  0  0  0  0  0  0  0  0  0  0  0
   -3.3135   -4.8590    0.0887 H   0  0  0  0  0  0  0  0  0  0  0  0
   -6.5153   -6.6752    3.1761 H   0  0  0  0  0  0  0  0  0  0  0  0
   -4.7898   -6.7116    2.7799 H   0  0  0  0  0  0  0  0  0  0  0  0
   -6.0024   -6.8287    1.4832 H   0  0  0  0  0  0  0  0  0  0  0  0
   -6.1268   -4.4278    4.4256 H   0  0  0  0  0  0  0  0  0  0  0  0
   -5.4025   -3.0611    3.5565 H   0  0  0  0  0  0  0  0  0  0  0  0
   -4.4130   -4.4805    3.9772 H   0  0  0  0  0  0  0  0  0  0  0  0
   -9.2391   -5.0050   -0.1569 H   0  0  0  0  0  0  0  0  0  0  0  0
  -11.1397   -3.9842   -1.3968 H   0  0  0  0  0  0  0  0  0  0  0  0
   -7.2628   -1.1853   -0.0726 H   0  0  0  0  0  0  0  0  0  0  0  0
  1  2  1  0  0  0  0
  1 37  1  0  0  0  0
  1 38  1  0  0  0  0
  1 39  1  0  0  0  0
  2  3  1  0  0  0  0
  2 40  1  0  0  0  0
  2 41  1  0  0  0  0
  3  4  1  0  0  0  0
  3 42  1  0  0  0  0
  3 43  1  0  0  0  0
  4  5  2  0  0  0  0
  4  6  1  0  0  0  0
  6  7  1  0  0  0  0
  6 11  1  0  0  0  0
  7  8  1  0  0  0  0
  7 44  1  0  0  0  0
  7 45  1  0  0  0  0
  8  9  1  0  0  0  0
  8 46  1  0  0  0  0
  8 47  1  0  0  0  0
  9 10  1  0  0  0  0
  9 12  1  0  0  0  0
  9 48  1  0  0  0  0
 10 11  1  0  0  0  0
 10 49  1  0  0  0  0
 10 50  1  0  0  0  0
 11 51  1  0  0  0  0
 11 52  1  0  0  0  0
 12 13  1  0  0  0  0
 12 53  1  0  0  0  0
 12 54  1  0  0  0  0
 13 14  1  0  0  0  0
 13 55  1  0  0  0  0
 13 56  1  0  0  0  0
 14 15  1  0  0  0  0
 14 57  1  0  0  0  0
 14 58  1  0  0  0  0
 15 16  1  0  0  0  0
 15 59  1  0  0  0  0
 15 60  1  0  0  0  0
 16 17  1  0  0  0  0
 16 22  1  0  0  0  0
 17 18  2  0  0  0  0
 17 19  1  0  0  0  0
 19 20  1  0  0  0  0
 19 25  1  0  0  0  0
 20 21  2  0  0  0  0
 20 22  1  0  0  0  0
 22 23  1  0  0  0  0
 22 24  1  0  0  0  0
 23 61  1  0  0  0  0
 23 62  1  0  0  0  0
 23 63  1  0  0  0  0
 24 64  1  0  0  0  0
 24 65  1  0  0  0  0
 24 66  1  0  0  0  0
 25 26  2  0  0  0  0
 25 30  1  0  0  0  0
 26 27  1  0  0  0  0
 26 67  1  0  0  0  0
 27 28  2  0  0  0  0
 27 68  1  0  0  0  0
 28 29  1  0  0  0  0
 28 35  1  0  0  0  0
 29 30  2  0  0  0  0
 29 31  1  0  0  0  0
 30 69  1  0  0  0  0
 31 32  1  0  0  0  0
 31 33  1  0  0  0  0
 31 34  1  0  0  0  0
 35 36  3  0  0  0  0
M  CHG  1   9   1
M  END
$$$$
