27   
torsion grid (-165,)
C        1.4631709090   -0.8674446360    2.4322049560
C        1.1951901989   -1.8825986427    3.3419966551
C       -0.2440635417   -1.6559407777    0.8650975386
C       -1.0900262063    3.2583874956   -0.1993175399
C       -0.0850462277    2.4383160129   -0.6648164248
C       -0.8613535708    1.7100286999    1.2726861836
C        0.7580864997   -0.7492871859    1.2050648087
C        0.1861047285   -2.7996730046    3.0067985045
C       -0.5157042977   -2.6759453231    1.7871637164
C       -2.3964794280   -4.0981164153    0.8299437636
C        1.0783336779    0.3932082861    0.2669205486
N       -1.5685470485    2.7948082895    1.0084575057
N       -0.3099094813   -3.8960953195    3.6869530248
N       -1.2492004238   -4.4302118102    2.9695058766
N        0.0481324972    1.4371940414    0.2818547758
N       -1.3996675593   -3.7168815051    1.8116255272
H        2.2317649934   -0.1341141487    2.6619032388
H        1.7373267481   -1.9682197073    4.2787069521
H       -0.7946243530   -1.5565402173   -0.0667312336
H       -1.4960128376    4.1463063856   -0.6673366950
H        0.5260139460    2.4657879144   -1.5565082769
H       -0.9673207130    1.0828161255    2.1471268875
H       -1.9204547679   -4.3374140528   -0.1258919671
H       -2.9110725954   -4.9805045283    1.2100801137
H       -3.1188005801   -3.2892406919    0.6842385705
H        2.0423961430    0.8373039504    0.5358248860
H        1.1612957332    0.0269604060   -0.7611296821
27   
torsion grid (-150,)
C        0.3256464237   -0.3425852615    1.8978517810
C        0.1476393376   -1.0249133106    3.0950425744
C       -0.4520261114   -2.2398342391    0.5606606878
C       -2.0160132518   -0.0260300699   -3.4136612830
C       -0.7225538539   -0.1128364340   -2.9474691998
C       -2.1640156116   -0.1260407595   -1.2720510255
C        0.0346795064   -0.9363675899    0.6414621476
C       -0.3436430211   -2.3380047561    3.0228904742
C       -0.6376330793   -2.9216509444    1.7707581285
C       -1.5550488881   -5.2291431716    1.2152418094
C        0.2917701392   -0.1465826330   -0.6268288542
N       -2.9075945977   -0.0361681739   -2.3601640594
N       -0.6344358238   -3.2579242226    4.0128881405
N       -1.0770395468   -4.3385818678    3.4481760429
N       -0.8256007744   -0.1942189585   -1.5690237129
N       -1.0925356605   -4.1692360865    2.0902487898
H        0.6939513491    0.6799422425    1.9181307992
H        0.3689001444   -0.5643055359    4.0529759085
H       -0.6902626397   -2.6888619463   -0.3994444290
H       -2.3522489028    0.0361433637   -4.4408136702
H        0.2348373195   -0.1337805411   -3.4495304248
H       -2.5302139935   -0.1599497426   -0.2545796497
H       -0.7570008915   -5.5382289549    0.5333219945
H       -1.8424358234   -6.0720552373    1.8436139395
H       -2.4199750471   -4.8951537965    0.6342509084
H        0.5142914581    0.8960230841   -0.3759350834
H        1.1685084111   -0.5479260583   -1.1455798367
27   
torsion grid (-135,)
C        0.4283261245   -0.3564675966    1.9671965162
C        0.3367527403   -1.1118747697    3.1287348505
C       -0.5073371609   -2.1454634564    0.5830261063
C       -1.9412068360   -0.3184606109   -3.4264771145
C       -0.6737432069   -0.2980728347   -2.8867959094
C       -2.2041439588   -0.0854765909   -1.3065870668
C        0.0161368399   -0.8608531690    0.7046018095
C       -0.1912823794   -2.4085998227    3.0164424203
C       -0.6049423375   -2.9015400649    1.7599060189
C       -1.6210532095   -5.1488058656    1.1364527713
C        0.2017135746    0.0102225260   -0.5245902573
N       -2.8888296090   -0.1857341326   -2.4313897069
N       -0.4207482200   -3.3855120936    3.9667259595
N       -0.9367683518   -4.4178796574    3.3739953241
N       -0.8508686273   -0.1611731719   -1.5203925254
N       -1.0635227830   -4.1576247636    2.0363256918
H        0.8222333049    0.6555950419    2.0208420811
H        0.6494189674   -0.7189049923    4.0913623153
H       -0.8359404781   -2.5274256664   -0.3789310940
H       -2.2219685192   -0.4233730299   -4.4666275447
H        0.3101162667   -0.3723911607   -3.3288853101
H       -2.6238864044    0.0265598902   -0.3151512899
H       -0.8843152959   -5.4381319184    0.3808236543
H       -1.8905295035   -6.0199573177    1.7334529050
H       -2.5134640752   -4.7551813923    0.6407705496
H        0.2583123996    1.0630229422   -0.2277081741
H        1.1502040523   -0.2345875080   -1.0130300664
27   
torsion grid (-120,)
C        0.5089520656   -0.3622709056    2.0109539828
C        0.4873715975   -1.1718238322    3.1377851738
C       -0.5550169800   -2.0667977979    0.6118380203
C       -1.8495207069   -0.5653133159   -3.3946406994
C       -0.6155553264   -0.4540719207   -2.7915728411
C       -2.2355719594   -0.0258616922   -1.3508621441
C       -0.0023214692   -0.7984698942    0.7579100410
C       -0.0701893603   -2.4547570960    3.0017311145
C       -0.5804356286   -2.8785738448    1.7562641757
C       -1.6752267040   -5.0778600483    1.0977701186
C        0.1128373217    0.1393257769   -0.4320362689
N       -2.8535646586   -0.2956756101   -2.4862524523
N       -0.2475414826   -3.4741455136    3.9173676404
N       -0.8219618942   -4.4691599896    3.3138823617
N       -0.8723585018   -0.1136410657   -1.4744311152
N       -1.0389117585   -4.1404900658    2.0031352028
H        0.9246246657    0.6401437924    2.0840826025
H        0.8756727266   -0.8314561612    4.0929214642
H       -0.9551888883   -2.3988562920   -0.3411651053
H       -2.0690852683   -0.8192481656   -4.4236970028
H        0.3926883465   -0.5831331755   -3.1598199607
H       -2.7119081688    0.2247675746   -0.4112646611
H       -0.9991217021   -5.3375098348    0.2774897402
H       -1.9153829700   -5.9746822055    1.6686995699
H       -2.5940928674   -4.6484022379    0.6875947595
H        0.0247922219    1.1773695081   -0.0940898783
H        1.1022759367    0.0398008511   -0.8887586613
27   
torsion grid (-105,)
C        0.5593387745   -0.3626982604    2.0258899867
C        0.6010468593   -1.2170576923    3.1175844058
C       -0.6205360968   -1.9943296514    0.6322354624
C       -1.7628191591   -0.7704698618   -3.3446881505
C       -0.5706044611   -0.5811476526   -2.6798706091
C       -2.2794186105    0.0371134960   -1.4223364053
C       -0.0420345381   -0.7405547909    0.7928942648
C        0.0173689654   -2.4875059212    2.9668830808
C       -0.5796764649   -2.8533324620    1.7424381633
C       -1.7428453223   -5.0118463964    1.0671754575
C       -0.0041158787    0.2582419127   -0.3530279202
N       -2.8230105428   -0.3806796712   -2.5507484082
N       -0.1109140373   -3.5426892491    3.8491176536
N       -0.7365157476   -4.5062072182    3.2447125582
N       -0.9116634919   -0.0605139333   -1.4433484561
N       -1.0359274539   -4.1201130654    1.9663600987
H        0.9952961670    0.6304024177    2.1105118068
H        1.0584398095   -0.9216175567    4.0569892767
H       -1.0845920950   -2.2850164206   -0.3049406826
H       -1.9154003853   -1.1549753507   -4.3449609342
H        0.4588959269   -0.7585531712   -2.9581816570
H       -2.8144327737    0.4119954996   -0.5584235810
H       -1.1257177797   -5.2436192868    0.1938104616
H       -1.9569411570   -5.9293224791    1.6151919735
H       -2.6807316004   -4.5557081636    0.7366305209
H       -0.2413502651    1.2590690278    0.0228325286
H        1.0069290126    0.3121282331   -0.7681512453
27   
torsion grid (-90,)
C        0.6424434290   -0.3839656325    2.0177153953
C        0.7703921606   -1.2796697054    3.0681305198
C       -0.6935619307   -1.9423697811    0.6822066565
C       -1.6401550118   -0.9517922279   -3.2827846300
C       -0.5101776560   -0.6884079580   -2.5390557488
C       -2.3201235983    0.0570340875   -1.5134575638
C       -0.0807537260   -0.7046607525    0.8341168433
C        0.1528049333   -2.5355410748    2.9257307450
C       -0.5619226695   -2.8454433725    1.7503459462
C       -1.8108478245   -4.9639188554    1.1018357555
C       -0.1540371454    0.3530084255   -0.2567931654
N       -2.7645271765   -0.4810889968   -2.6339805520
N        0.0942133080   -3.6243881465    3.7734770414
N       -0.5993134669   -4.5563667206    3.1937255461
N       -0.9558980879   -0.0331637574   -1.4041541921
N       -1.0121596355   -4.1157260729    1.9656782887
H        1.1060327550    0.5972707837    2.0953731261
H        1.3224642276   -1.0287256778    3.9688235729
H       -1.2445544425   -2.1933899206   -0.2183651073
H       -1.7055423497   -1.4397965639   -4.2468058790
H        0.5380542822   -0.8979609910   -2.7004770232
H       -2.9263054933    0.5250830874   -0.7473181488
H       -1.2869661520   -5.1518897862    0.1598341009
H       -1.9709473835   -5.9071130783    1.6240128996
H       -2.7761263040   -4.4940129436    0.8909797139
H       -0.5710203714    1.2780777182    0.1551093492
H        0.8526963194    0.5959388787   -0.6108027026
27   
torsion grid (-75,)
C        0.7024596966   -0.4227532981    1.9645530882
C        0.9155602206   -1.3608620473    2.9633695382
C       -0.7944269356   -1.9040759438    0.7149053022
C       -1.4516521370   -1.0335018644   -3.2823672665
C       -0.4203204191   -0.7455756470   -2.4150965909
C       -2.3248573045    0.1055335801   -1.6858759292
C       -0.1433504711   -0.6836127501    0.8501252392
C        0.2617806904   -2.5996155149    2.8370091692
C       -0.5724161419   -2.8511799638    1.7279745121
C       -1.9119756899   -4.9263290253    1.1225819443
C       -0.3330060213    0.4262983052   -0.1722186299
N       -2.6368231024   -0.4979991345   -2.8174740681
N        0.2711404636   -3.7223458182    3.6416835533
N       -0.4926024368   -4.6203843717    3.0980341903
N       -0.9882803616   -0.0015432606   -1.3953817855
N       -1.0187239762   -4.1241375104    1.9362614509
H        1.1968609558    0.5442363655    2.0284990804
H        1.5636345464   -1.1563937750    3.8102336604
H       -1.4338968409   -2.1116996121   -0.1370468114
H       -1.4061500270   -1.5849794573   -4.2127917839
H        0.6325112343   -0.9906981623   -2.4226663390
H       -3.0100371526    0.6392744492   -1.0382476171
H       -1.4847110657   -5.0849648098    0.1278848414
H       -2.0385049916   -5.8866451149    1.6222728770
H       -2.8843558951   -4.4346052847    1.0239249768
H       -0.9364688594    1.2304654251    0.2619758243
H        0.6362937265    0.8663947060   -0.4279655753
27   
torsion grid (-60,)
C        0.7629109259   -0.4642194284    1.9074418584
C        1.0696376463   -1.4428128179    2.8425689427
C       -0.8853273635   -1.8807054820    0.7796260656
C       -1.2662070371   -1.0044091763   -3.2758137643
C       -0.3574642700   -0.7698302621   -2.2670939441
C       -2.2795810555    0.2369333805   -1.8486314751
C       -0.2038785527   -0.6723458482    0.8861628910
C        0.3877957296   -2.6676637103    2.7433634113
C       -0.5672453116   -2.8684818887    1.7239838274
C       -1.9905118829   -4.9082830254    1.1918955521
C       -0.5109256746    0.4738165583   -0.0628717245
N       -2.4641107342   -0.3730159742   -3.0041161705
N        0.4721727904   -3.8222701732    3.4976882261
N       -0.3577005505   -4.6913721226    3.0075270727
N       -1.0128889722    0.0426111821   -1.3580090944
N       -1.0025744522   -4.1458515253    1.9307675956
H        1.2788752054    0.4922949325    1.9496596741
H        1.8119236434   -1.2792938766    3.6179336065
H       -1.6143774558   -2.0475045578   -0.0074455880
H       -1.1248973292   -1.5863774432   -4.1776663647
H        0.6613004071   -1.0948971022   -2.1103196043
H       -3.0111151315    0.8377370274   -1.3216015927
H       -1.6897046025   -5.0096460589    0.1448778737
H       -2.0540358629   -5.8951922323    1.6500426438
H       -2.9679741870   -4.4190024652    1.2416927765
H       -1.2700680254    1.1303368914    0.3751042483
H        0.3875919887    1.0829816837   -0.2080752338
27   
torsion grid (-45,)
C        0.7544834573   -0.4747548284    1.8204756712
C        1.1619616580   -1.4602490439    2.7104442962
C       -0.9837026163   -1.8986122497    0.8487372240
C       -1.1141512298   -0.9768825739   -3.3127011074
C       -0.3715939967   -0.8557936673   -2.1581836412
C       -2.1962221892    0.3866665489   -2.0589781169
C       -0.3062001859   -0.6825243395    0.8990911720
C        0.4860201099   -2.6904113614    2.6656740160
C       -0.5643095740   -2.8925198614    1.7438147104
C       -2.0102127149   -4.9452763551    1.3333928625
C       -0.7245379976    0.4595815151   -0.0078399475
N       -2.2523143990   -0.1986580057   -3.2404764629
N        0.6568602489   -3.8518426534    3.3953237929
N       -0.2080854021   -4.7252544925    2.9803285337
N       -1.0708029760    0.0325392040   -1.3588807681
N       -0.9631079152   -4.1773293842    1.9789894456
H        1.2633764556    0.4860465855    1.8214148107
H        1.9760314993   -1.2966032584    3.4099719386
H       -1.7841895395   -2.0640029944    0.1335249055
H       -0.8942367801   -1.5791670778   -4.1850152705
H        0.5566445552   -1.3051283728   -1.8363691800
H       -2.9287504579    1.0752493412   -1.6551289842
H       -1.8119375277   -5.0355079118    0.2611817681
H       -2.0181209225   -5.9363431357    1.7868981440
H       -2.9833926686   -4.4678676968    1.4829803950
H       -1.6037266433    0.9666587751    0.4028845289
H        0.0801816231    1.2014976587   -0.0545895162
27   
torsion grid (-30,)
C        0.2543894583   -0.3581775768    2.1328285940
C        0.2104792537   -1.2191908124    3.2172237797
C       -0.5678412226   -2.0690580677    0.5845637733
C       -2.6056181103    2.6915010029    0.4384283114
C       -2.1445567693    1.3982628122    0.5598551324
C       -0.7309509225    2.6365884530   -0.6033281224
C       -0.1282921883   -0.7720057042    0.8251096846
C       -0.2287450706   -2.5355369289    2.9827505962
C       -0.6075856490   -2.9411729845    1.6860085363
C       -1.4516046425   -5.1945686720    0.8569865535
C       -0.0507847030    0.2220553558   -0.3113687301
N       -1.7160880713    3.4568245651   -0.2878615095
N       -0.3816289340   -3.6087572631    3.8384111763
N       -0.8217967156   -4.6189594010    3.1527992485
N       -0.9376470206    1.3707002995   -0.1180501815
N       -0.9699304082   -4.2479416501    1.8439149645
H        0.5761726071    0.6701057898    2.2752557158
H        0.5011222681   -0.8992599050    4.2132314517
H       -0.8696943440   -2.3840516760   -0.4108016681
H       -3.5191185468    3.1120066373    0.8391205848
H       -2.5403795032    0.5267273879    1.0595341265
H        0.1519170566    2.8948751140   -1.1757918305
H       -0.7035629492   -5.3439738077    0.0723717365
H       -1.6333144835   -6.1391612909    1.3695121879
H       -2.3838868360   -4.8389824531    0.4076387361
H        0.9679378381    0.6111213709   -0.4064181880
H       -0.3008922786   -0.2764914555   -1.2543389143
27   
torsion grid (-15,)
C        0.3817813464   -0.3842726597    2.2118956689
C        0.2895109026   -1.2716815920    3.2726188500
C       -0.5251493444   -2.0054964891    0.6158927490
C       -2.7116644006    2.5310236685    0.3794202907
C       -2.0880663546    1.3320160194    0.6512586998
C       -0.9145454343    2.5258430199   -0.7916506856
C       -0.0195352255   -0.7395385609    0.8929938886
C       -0.2194233093   -2.5548119039    3.0011064991
C       -0.6152192250   -2.9033051972    1.6924767507
C       -1.5760398284   -5.0838910548    0.7991668609
C        0.0898214074    0.2858719484   -0.2103281089
N       -1.9720833654    3.2690552153   -0.5215175504
N       -0.4312960592   -3.6422065102    3.8260816410
N       -0.9223458402   -4.6076955564    3.1113755943
N       -0.9314376811    1.3358423189   -0.1104771727
N       -1.0458518114   -4.1933032844    1.8132171069
H        0.7610159466    0.6198012795    2.3834590336
H        0.5963751075   -0.9960978005    4.2769461835
H       -0.8407648336   -2.2757326822   -0.3882408424
H       -3.6436646136    2.9022307913    0.7861357749
H       -2.3459277357    0.5080437239    1.2989243105
H       -0.1088102098    2.7904880992   -1.4659626813
H       -0.8351003307   -5.2517855456    0.0116059740
H       -1.8106539167   -6.0311640400    1.2844961405
H       -2.4860913132   -4.6648801055    0.3591222027
H        1.0707300411    0.7704270542   -0.1786204258
H       -0.0026207986   -0.2083544052   -1.1831041252
27   
torsion grid (0,)
C        1.0565866132   -0.7649397094    1.8290521911
C        1.2259139683   -1.7606654656    2.7799081684
C       -0.7343993793   -1.9861788956    0.6904243653
C        2.5288692438   -0.6091612591   -2.6947572287
C        1.8839398284   -0.9208055674   -1.5168026543
C        1.0705628802    0.9357248078   -2.3978189996
C        0.0889480252   -0.8683049619    0.7913506073
C        0.3983668549   -2.8932116694    2.6846361886
C       -0.5605895437   -2.9922824530    1.6536321123
C       -2.2234965154   -4.8484815570    1.1381934460
C       -0.0165034627    0.2366474459   -0.2321564413
N        2.0147334060    0.5502671109   -3.2370554346
N        0.3221156500   -4.0318994310    3.4633555643
N       -0.6038116282   -4.7987968867    2.9755642979
N        0.9447070009    0.0804952208   -1.3334732488
N       -1.1595573675   -4.1986137001    1.8787835938
H        1.6828899262    0.1226732741    1.8654310615
H        1.9651646020   -1.6763982915    3.5705661182
H       -1.4671552035   -2.0714590137   -0.1075761880
H        3.3308247327   -1.1533630173   -3.1769890887
H        2.0037956365   -1.7315384039   -0.8147578557
H        0.4484813815    1.8164476157   -2.5043482273
H       -1.9164146798   -5.0260810239    0.1030744359
H       -2.4272905083   -5.8020559463    1.6250762336
H       -3.1283789213   -4.2332557225    1.1487852988
H       -1.0251769729    0.2577454742   -0.6561420987
H        0.1613964423    1.2050887981    0.2460872246
27   
torsion grid (15,)
C        1.0479444571   -0.8060349477    1.6941433166
C        1.2499445777   -1.7671873688    2.6721595310
C       -0.8045269218   -2.0478797548    0.6821451770
C        2.6415488292   -0.4626592718   -2.6387658902
C        1.8620635445   -0.9104349016   -1.5936375058
C        1.2370263578    1.1086152931   -2.2392349196
C        0.0327696251   -0.9372272374    0.7047203871
C        0.4064838390   -2.8930494887    2.6573838868
C       -0.5991410106   -3.0192515634    1.6758468973
C       -2.3019469805   -4.8742141218    1.3056642017
C       -0.1162449285    0.1399091213   -0.3432999731
N        2.2442618618    0.7978248683   -3.0346163548
N        0.3553692269   -4.0014244462    3.4800418533
N       -0.5994940325   -4.7755751309    3.0639981426
N        0.9569933522    0.1078337285   -1.3445867649
N       -1.1990929598   -4.2093814994    1.9721956101
H        1.6855502587    0.0737984625    1.6663434946
H        2.0257956274   -1.6631426616    3.4245064408
H       -1.5739553994   -2.1544143444   -0.0778124820
H        3.4655350300   -0.9742030218   -3.1196039623
H        1.8710395164   -1.8235877120   -1.0183497297
H        0.6738200353    2.0339645255   -2.2610141504
H       -2.0443527291   -5.0938956445    0.2650929763
H       -2.4924206789   -5.8066706042    1.8368558713
H       -3.1995325881   -4.2489388890    1.3340226918
H       -1.0798240899    0.0286121691   -0.8514393329
H       -0.1039182147    1.1280049820    0.1273535258
27   
torsion grid (30,)
C        1.0505872364   -0.8531894139    1.5499017921
C        1.2700890703   -1.7702825164    2.5647851551
C       -0.8530305884   -2.1104918293    0.6581895086
C        2.7494897644   -0.3011715213   -2.5940072886
C        1.8576002402   -0.8797605792   -1.7167524955
C        1.3793051007    1.2537552981   -2.0394458071
C        0.0000548084   -1.0139170675    0.6020654618
C        0.4090083371   -2.8813931434    2.6325499067
C       -0.6298407942   -3.0370114949    1.6912042420
C       -2.3718251604   -4.8785214521    1.4658708072
C       -0.1817849034    0.0302029854   -0.4762000502
N        2.4433955092    1.0303998710   -2.7881992480
N        0.3690979380   -3.9486422985    3.5081917920
N       -0.6103999069   -4.7259924771    3.1609276204
N        0.9753939434    0.1285126968   -1.3675558352
N       -1.2365951046   -4.2022562444    2.0625582936
H        1.7020422408    0.0117321870    1.4565078537
H        2.0735782554   -1.6451433582    3.2842251556
H       -1.6493099348   -2.2401897959   -0.0699726253
H        3.5946014206   -0.7657441172   -3.0857547154
H        1.7769875417   -1.8769187195   -1.3104074410
H        0.8586367123    2.1988340831   -1.9413918743
H       -2.1533571191   -5.1526705268    0.4292317665
H       -2.5592770017   -5.7808609547    2.0477619597
H       -3.2578306759   -4.2368451962    1.4933311827
H       -1.0764481753   -0.2005930563   -1.0649615282
H       -0.3303352277    1.0174217279   -0.0273490478
27   
torsion grid (45,)
C        1.0492465587   -0.9043715061    1.4217321223
C        1.2774423269   -1.7730451575    2.4765258377
C       -0.8889353447   -2.1782847735    0.6333599280
C        2.8114497886   -0.1558216176   -2.5808358582
C        1.8411789682   -0.8428751308   -1.8839787725
C        1.4679096096    1.3348041953   -1.8213578640
C       -0.0237265272   -1.0973798742    0.5062100841
C        0.4035450037   -2.8670329099    2.6180663659
C       -0.6565319881   -3.0551307531    1.7069094327
C       -2.4243214392   -4.8827915899    1.6073771706
C       -0.2291994406   -0.0953575665   -0.6104018148
N        2.5705890348    1.2026343516   -2.5345092959
N        0.3698142052   -3.8902423458    3.5451449575
N       -0.6260221742   -4.6708280593    3.2569823465
N        0.9778195773    0.1248976324   -1.4007943927
N       -1.2689142562   -4.1931505989    2.1468099260
H        1.7114882730   -0.0562596442    1.2700346689
H        2.0988720459   -1.6248790405    3.1709559680
H       -1.7020723576   -2.3334244885   -0.0710647408
H        3.6686987930   -0.5613110148   -3.1029409962
H        1.6954636522   -1.8930129467   -1.6762907993
H        0.9769889799    2.2689743528   -1.5760120062
H       -2.2308071249   -5.2109663632    0.5814644165
H       -2.6110352888   -5.7526858034    2.2369975872
H       -3.3017128035   -4.2288659814    1.6204107081
H       -1.0417568130   -0.4297331360   -1.2648231621
H       -0.5220695443    0.8758923440   -0.1987363270
27   
torsion grid (60,)
C        1.0841716275   -0.9570664872    1.3067406055
C        1.3120879888   -1.7716674726    2.4046876650
C       -0.8886971959   -2.2354027069    0.6191696982
C        2.8929868576    0.0277788525   -2.5540080801
C        1.8635583009   -0.7526334746   -2.0743532579
C        1.5505180825    1.3731370700   -1.5577894009
C       -0.0064000938   -1.1787704507    0.4203129418
C        0.4204056645   -2.8380784252    2.6203400011
C       -0.6568561059   -3.0557526547    1.7360861287
C       -2.4590953251   -4.8518772811    1.7634533459
C       -0.2280848455   -0.2267964103   -0.7401831614
N        2.6880368953    1.3532131315   -2.2264872075
N        0.3821950166   -3.8082185858    3.6030535046
N       -0.6318770062   -4.5841508411    3.3730091966
N        1.0015316942    0.1219999442   -1.4371441981
N       -1.2830227458   -4.1561014709    2.2469255332
H        1.7612749850   -0.1331639587    1.0994791639
H        2.1483055098   -1.6025951039    3.0763616616
H       -1.7157093778   -2.4138901879   -0.0635849512
H        3.7647267220   -0.2891572543   -3.1121312498
H        1.6753681728   -1.8163987138   -2.1069596238
H        1.0710045233    2.2514505116   -1.1423388630
H       -2.2873437725   -5.2411697079    0.7551270551
H       -2.6530669643   -5.6811191194    2.4437383318
H       -3.3237618779   -4.1811084425    1.7515020166
H       -0.9408612333   -0.6594224422   -1.4499195304
H       -0.6639796284    0.7103429394   -0.3784212527
27   
torsion grid (75,)
C        1.0594227497   -1.0112823646    1.3211985124
C        1.2922661252   -1.8073236045    2.4329833448
C       -0.9055244030   -2.3129227622    0.6577010596
C        2.8248321790    0.3679471969   -2.4671948279
C        1.8073543792   -0.5116852741   -2.1672914247
C        1.4740627633    1.4428024341   -1.1915656101
C       -0.0297806196   -1.2533477553    0.4400597788
C        0.4074292639   -2.8741145717    2.6680945216
C       -0.6690031248   -3.1124253004    1.7877069443
C       -2.4594904350   -4.9194977445    1.8447634304
C       -0.2753737155   -0.3224606434   -0.7362525511
N        2.6063798274    1.5855469510   -1.8542542607
N        0.3754897763   -3.8285828615    3.6667759989
N       -0.6338100640   -4.6138320911    3.4497156926
N        0.9426127744    0.1875218775   -1.3445334925
N       -1.2880680433   -4.2083665615    2.3166632424
H        1.7336832901   -0.1886510597    1.1025435831
H        2.1290715235   -1.6225552246    3.0997969941
H       -1.7321890723   -2.5083392125   -0.0211590277
H        3.6934782333    0.1952316683   -3.0896302181
H        1.6287363639   -1.5431847251   -2.4367166407
H        0.9852218672    2.2025193843   -0.5932557645
H       -2.2852700577   -5.3242411560    0.8429201048
H       -2.6482247909   -5.7387461816    2.5385205979
H       -3.3286017563   -4.2547259407    1.8217894700
H       -0.8726162546   -0.8286352870   -1.5003646804
H       -0.8547683390    0.5459701068   -0.4044972968
27   
torsion grid (90,)
C        0.3566385732   -0.2978971897    2.1514715946
C        0.4985654118   -1.1797938328    3.2152257595
C       -0.6833180083   -2.0021563639    0.7344441621
C        0.7311071709    3.6020366542    0.6801088213
C        1.0315399776    2.3712823658    0.1381057321
C       -1.1113773855    2.4984627718    0.6632313647
C       -0.2247777346   -0.6992483250    0.9197607368
C        0.0467308628   -2.4970884840    3.0362643237
C       -0.5335676977   -2.8891705357    1.8106163300
C       -1.4786126064   -5.1408829223    1.0952679495
C       -0.3420113407    0.2763454956   -0.2446281013
N       -0.6092897794    3.6705328568    1.0038113336
N        0.0444076809   -3.5852158465    3.8891710009
N       -0.4899613155   -4.5902182826    3.2685516353
N       -0.1628713280    1.6708582854    0.1186139347
N       -0.8530205448   -4.2026142820    2.0052638389
H        0.6906782264    0.7283759454    2.2637955100
H        0.9391505317   -0.8659716726    4.1567239987
H       -1.1385662161   -2.3105660706   -0.2040774306
H        1.3980341152    4.4379798975    0.8478392159
H        1.9510470866    1.9385657539   -0.2309136475
H       -2.1425522033    2.1886417263    0.7818447807
H       -0.8687875781   -5.2676198349    0.1952736390
H       -1.5617026997   -6.0960281186    1.6138542644
H       -2.4769225897   -4.7933907382    0.8113573384
H        0.4041644145    0.0340865880   -1.0083912847
H       -1.3219046323    0.1693935513   -0.7198043430
27   
torsion grid (105,)
C        1.5523159799   -1.8479056960    0.7113824917
C        1.7032307298   -2.4762774906    1.9383114524
C       -0.8081197613   -2.4807144732    0.5472750950
C        2.6029207197    1.4796076926   -1.8752960791
C        2.1953176717    0.1891577965   -2.1356063320
C        0.7501676780    1.2212099331   -0.8207674830
C        0.3122719722   -1.8502565670    0.0148582447
C        0.5802946733   -3.1259221085    2.4805389056
C       -0.6486122600   -3.1200527474    1.7876774166
C       -2.8900735301   -4.1426717097    2.4235335013
C        0.2122049135   -1.1880623215   -1.3486519826
N        1.6937147493    2.1146349533   -1.0536245603
N        0.4132329729   -3.8231085891    3.6616196918
N       -0.8165557371   -4.2308507825    3.7255139220
N        0.9960621001    0.0341056783   -1.4609742623
N       -1.4886564489   -3.8203942429    2.6048387391
H        2.3951982505   -1.3231459684    0.2712168703
H        2.6498014735   -2.4668440631    2.4702108926
H       -1.7609929493   -2.4725384908    0.0235891752
H        3.4912337462    1.9837231225   -2.2337199117
H        2.6223713049   -0.6080968662   -2.7281077172
H       -0.1241623465    1.3673188890   -0.1985307135
H       -3.0323154388   -4.7408741121    1.5181475602
H       -3.2099352750   -4.7182727006    3.2921233316
H       -3.4880032149   -3.2287360056    2.3527234008
H        0.5689730711   -1.8724301167   -2.1247361173
H       -0.8336602906   -0.9645518669   -1.5806285373
27   
torsion grid (120,)
C        0.7647830455   -0.4727733515    2.0934498120
C        0.7822487349   -1.3613823446    3.1567649044
C       -0.5622837559   -1.9861209743    0.6970396595
C        0.1266962718    3.7396456541    0.5921639412
C        0.7810399315    2.6656534897    0.0287620465
C       -1.2041762999    2.0649789062    0.7920001404
C        0.1039193753   -0.7777179858    0.8706653764
C        0.1192531445   -2.5907838303    2.9889522546
C       -0.5381812033   -2.8856794008    1.7763161119
C       -1.8501877792   -4.9540983624    1.0872664156
C        0.1578563477    0.2196903286   -0.2708512816
N       -1.1111320839    3.3535661566    1.0650933240
N       -0.0430834557   -3.6618087789    3.8460638149
N       -0.7444609633   -4.5690197529    3.2390730908
N       -0.0836588636    1.5923727683    0.1589637550
N       -1.0620819410   -4.1294376626    1.9816504628
H        1.2521080475    0.4932613526    2.1919647148
H        1.2829198377   -1.1237123567    4.0904632187
H       -1.0787262520   -2.2158868771   -0.2316067266
H        0.4751975798    4.7604648739    0.6827547769
H        1.7488459085    2.5636775909   -0.4423124320
H       -2.0404950161    1.4219242320    1.0359765787
H       -1.2867591571   -5.1786960751    0.1763277475
H       -2.0773000858   -5.8825472015    1.6111455805
H       -2.7838121410   -4.4485391939    0.8217637313
H        1.1473265313    0.2005700694   -0.7376176775
H       -0.5662250188   -0.0544423726   -1.0450050508
27   
torsion grid (135,)
C        0.8727320094   -0.5150690112    2.1070400382
C        0.8338689440   -1.4127763831    3.1614792267
C       -0.5161941288   -1.9432113311    0.6813672707
C       -0.0641841464    3.7779557205    0.4384394822
C        0.6714419527    2.7524403045   -0.1146501029
C       -1.1399911021    1.9721292974    0.8827467321
C        0.2088458774   -0.7727245386    0.8743480948
C        0.1085749166   -2.6041049162    2.9740246016
C       -0.5502353866   -2.8531743281    1.7520380874
C       -1.9597200120   -4.8444720216    1.0285428011
C        0.3201267584    0.2395472766   -0.2471793849
N       -1.1918456162    3.2799487694    1.0590717045
N       -0.1177003376   -3.6734842404    3.8182328644
N       -0.8590283288   -4.5372546095    3.1950632056
N       -0.0254280372    1.5929789075    0.1792481928
N       -1.1396155454   -4.0701482875    1.9392299730
H        1.4093856575    0.4232121600    2.2186126996
H        1.3378308914   -1.2114347817    4.1019100559
H       -1.0338014155   -2.1362771488   -0.2547637791
H        0.1561864671    4.8377533441    0.4282611988
H        1.5987835405    2.7348921488   -0.6702693194
H       -1.8591190636    1.2520215866    1.2515016281
H       -1.3983161232   -5.0905063455    0.1219456574
H       -2.2413625803   -5.7640592014    1.5414184960
H       -2.8622175442   -4.2879826051    0.7575263744
H        1.3492847134    0.2742165567   -0.6174141411
H       -0.3163292738   -0.0573792133   -1.0877541904
27   
torsion grid (150,)
C        0.9886111303   -0.6005836036    2.1740077819
C        0.8892722917   -1.5144579408    3.2103804236
C       -0.4639196159   -1.9206026263    0.7083487730
C       -0.2672412609    3.7434886702    0.3301790269
C        0.5448364961    2.7706658434   -0.2106923471
C       -1.0544446669    1.8664350553    1.0186523641
C        0.3231907032   -0.7962267448    0.9304902589
C        0.0999091620   -2.6591453094    2.9928612768
C       -0.5600603255   -2.8474677672    1.7606604937
C       -2.0691633933   -4.7444440501    0.9850176944
C        0.4923023070    0.2362260928   -0.1625100241
N       -1.2606630597    3.1688418981    1.0965262916
N       -0.1915461121   -3.7314718776    3.8128396734
N       -0.9728517382   -4.5408132665    3.1656970552
N        0.0386667744    1.5656266352    0.2457792844
N       -1.2163022995   -4.0341863863    1.9178554335
H        1.5784904674    0.3023781957    2.3074837724
H        1.3961487163   -1.3610767963    4.1582300088
H       -0.9815951609   -2.0661586962   -0.2361125842
H       -0.1874603905    4.8172419485    0.2174477582
H        1.4147718412    2.8179758691   -0.8510553860
H       -1.6409614915    1.1004220190    1.5083986072
H       -1.5131901423   -5.0044043503    0.0790021574
H       -2.4066207160   -5.6562503943    1.4776595773
H       -2.9364137243   -4.1333339362    0.7168144141
H        1.5496352144    0.3246481173   -0.4316563694
H       -0.0487039001   -0.0763934767   -1.0623736862
27   
torsion grid (165,)
C        1.1276931216   -0.6622538679    2.2348415223
C        0.9643748968   -1.5874386354    3.2535996745
C       -0.3850164299   -1.8665957429    0.7314147012
C       -0.5344727729    3.6596871052    0.1878104183
C        0.3560586833    2.7537843656   -0.3458531612
C       -0.9730169052    1.7772146917    1.1262300415
C        0.4635937062   -0.7937512667    0.9824280805
C        0.1102726437   -2.6780633031    3.0074068998
C       -0.5463862395   -2.8043190150    1.7652109156
C       -2.1561394449   -4.5939580001    0.9391656196
C        0.6833750649    0.2596385051   -0.0787889530
N       -1.3572699148    3.0412611749    1.1063660316
N       -0.2521336865   -3.7466586677    3.8039114252
N       -1.0726513963   -4.4961449681    3.1337096064
N        0.0765269627    1.5468113081    0.2720597936
N       -1.2720905857   -3.9535681671    1.8935051526
H        1.7716742762    0.1995096636    2.3899545440
H        1.4714609645   -1.4826860768    4.2078948492
H       -0.9011640863   -1.9630828653   -0.2200408920
H       -0.6223036554    4.7162765011   -0.0315534390
H        1.1442487445    2.8500493632   -1.0798370134
H       -1.3978483022    0.9959869411    1.7414402854
H       -1.6071013322   -4.8694899333    0.0335657313
H       -2.5523053658   -5.4930725188    1.4109438810
H       -2.9824962606   -3.9270509627    0.6750224298
H        1.7555851856    0.4282089102   -0.2227320920
H        0.2730255074   -0.0816866788   -1.0352685262
27   
torsion grid (180,)
C        1.2813562963   -0.7441360400    2.3162809020
C        1.0504761908   -1.6928111266    3.3017000779
C       -0.3037221563   -1.7868957851    0.7684120309
C       -0.8090427251    3.5006603274    0.0153691156
C        0.1320283533    2.6451502048   -0.5154415639
C       -0.8827839194    1.7214623980    1.2178480216
C        0.6157433035   -0.7833600282    1.0597637578
C        0.1237598041   -2.7103129086    3.0148819422
C       -0.5356100653   -2.7453700559    1.7673422099
C       -2.2607787606   -4.3890409941    0.8736256881
C        0.8923942989    0.3001822071    0.0440870387
N       -1.4352897246    2.9160120434    1.0958328759
N       -0.3136622592   -3.7810855546    3.7704824805
N       -1.1807405192   -4.4467830562    3.0716651081
N        0.0808362146    1.5032803578    0.2651327275
N       -1.3383283235   -3.8467482855    1.8522421574
H        1.9857342494    0.0622754292    2.5035327348
H        1.5610462748   -1.6586878008    4.2592240288
H       -0.8208540944   -1.8123413663   -0.1870966736
H       -1.0661780711    4.4980563607   -0.3184433164
H        0.8143857477    2.7367184772   -1.3492932787
H       -1.1318850365    0.9836221306    1.9674761539
H       -1.7286011540   -4.6660527097   -0.0415300723
H       -2.7180440884   -5.2767895584    1.3103246960
H       -3.0392748344   -3.6581021537    0.6349381283
H        1.9485177143    0.5867365854    0.0820856691
H        0.6884949866   -0.0717854049   -0.9651127170
