27   
torsion grid (-165,)
C        4.4768220449    2.1702269261   -2.5351836488
C        3.1570125352    1.4112545384   -2.5133275987
O        2.2464357501    2.0895901888   -1.8302845603
C        0.8902240537    1.5049614200   -1.6236417655
C        0.9119115445    0.5995850661   -0.4105488097
O        1.3873655086    1.3755354200    0.7125040080
C        1.0391732461    0.9036300765    1.9351507769
C        0.6743812981    2.0317713363    2.8533480520
O        1.0147167430   -0.2869987637    2.2161406341
C       -0.1045177090    2.6712087983   -1.5171724654
O       -1.3932431858    2.1639485838   -1.6479905841
P       -2.4542493525    2.2904011187   -0.1834265138
O       -3.5694759103    1.3249348465   -0.5658471181
O       -2.7650834271    3.7866855906   -0.1055174177
O       -1.4914743271    1.7869871139    0.9293174989
H        0.6504410676    0.9070488351   -2.5052087167
O        3.0079402711    0.3234725502   -3.0583974629
H        4.9122088243    2.1579227697   -1.5303575832
H        4.3117876376    3.2165931609   -2.8077385935
H        5.1652567334    1.6962894691   -3.2376699363
H        1.5565113055   -0.2727971140   -0.5635468318
H       -0.1242227610    0.3117569636   -0.1992153925
H       -0.3287399723    2.3181999165    2.4723382625
H        1.3494320531    2.8845137516    2.7261192706
H        0.6449963064    1.6967215218    3.8940127929
H        0.1326906086    3.3743286864   -2.3408956043
H        0.0501776735    3.1978113686   -0.5676115186
27   
torsion grid (-150,)
C        4.4982194445    2.1473747254   -2.4391745746
C        3.1626972222    1.4158013878   -2.4474200542
O        2.2528839437    2.1097695875   -1.7794573242
C        0.8794990639    1.5550657820   -1.6050266719
C        0.8591170995    0.6318941831   -0.4044064621
O        1.3480457404    1.3766634270    0.7331647650
C        0.9508712671    0.9191037087    1.9450905891
C        0.6970577263    2.0616413235    2.8857607350
O        0.8216760259   -0.2677316598    2.2105994110
C       -0.0908387339    2.7431208636   -1.4980218168
O       -1.3852294480    2.2669916330   -1.6624002997
P       -2.4806694387    2.2823488174   -0.2095100520
O       -3.3719798789    1.0861385470   -0.5255793970
O       -3.0917330365    3.6831887713   -0.2454020545
O       -1.4568482386    2.0563591484    0.9376199621
H        0.6401523883    0.9758812225   -2.4991351663
O        3.0026310244    0.3338252094   -3.0007821975
H        4.9153650694    2.1166786919   -1.4270012404
H        4.3601343783    3.1993930643   -2.7048357075
H        5.1890988457    1.6651820465   -3.1336229231
H        1.4801924181   -0.2564304595   -0.5632219142
H       -0.1842996815    0.3619749696   -0.2127375707
H       -0.2707300408    2.4561500297    2.5202014114
H        1.4580503917    2.8420842682    2.7780666149
H        0.6353957248    1.7077236490    3.9186364614
H        0.1787579821    3.4522191840   -2.3071158185
H        0.0565923291    3.2435910121   -0.5328728346
27   
torsion grid (-135,)
C        4.6696519437    1.9902948780   -2.5583777835
C        3.3201706152    1.2929561436   -2.4633421173
O        2.4689852777    2.0297816883   -1.7633739206
C        1.0924638477    1.5276126119   -1.5098700613
C        1.0758655853    0.6696143277   -0.2587913767
O        1.3856660385    1.5087136725    0.8644904649
C        0.8828192616    1.1198744156    2.0693748953
C        0.6291887037    2.3151579615    2.9285991753
O        0.6673116643   -0.0530152893    2.3460386851
C        0.1704949402    2.7540437402   -1.4116203852
O       -1.0954903182    2.2858947932   -1.0943608874
P       -2.0228143344    3.1131312298    0.2424949223
O       -2.5463999075    1.8938274930    1.0020427295
O       -3.0284386367    3.9707553952   -0.5218511866
O       -0.9032420678    3.9023942034    0.9722708386
H        0.8176865353    0.8947033224   -2.3573065413
O        3.0994377329    0.1988968993   -2.9711079525
H        5.1400156481    1.9974468914   -1.5694567225
H        4.5392587444    3.0319572858   -2.8651182579
H        5.3113278640    1.4606760589   -3.2652067373
H        1.7931152776   -0.1570325899   -0.3291986124
H        0.0624709467    0.2792936508   -0.1437839917
H       -0.1329182911    2.9273665575    2.3754772644
H        1.5301517330    2.9380033512    2.9923587250
H        0.2953008791    2.0030399037    3.9212693896
H        0.2033122712    3.2733861704   -2.3937836462
H        0.5499291149    3.4390848167   -0.6422750279
27   
torsion grid (-120,)
C        4.5889957000    2.1128657882   -2.4416617858
C        3.2564927431    1.3774296960   -2.4767474650
O        2.3418662063    2.0482182140   -1.7914696075
C        0.9676030621    1.4940011572   -1.6479135564
C        0.8903448177    0.6084170395   -0.4184422275
O        1.1414840531    1.4249223589    0.7361758323
C        0.6963792077    0.9409557266    1.9261817608
C        0.3488272776    2.0755801759    2.8400521690
O        0.6216610890   -0.2557611230    2.1717879764
C       -0.0130968429    2.6804664575   -1.5999262589
O       -1.2730705015    2.1435148398   -1.3851694731
P       -2.2097177178    2.6476061982    0.0934969679
O       -2.3813088505    1.2850806407    0.7772439473
O       -3.4541444519    3.2914758117   -0.5097697542
O       -1.2307351763    3.6128676770    0.8052542574
H        0.7773267544    0.8699616726   -2.5243336892
O        3.1025245267    0.3108979580   -3.0622182561
H        5.0076601668    2.0446927333   -1.4319357855
H        4.4463716201    3.1738420276   -2.6652542027
H        5.2810540200    1.6602607031   -3.1546177223
H        1.6129900294   -0.2149003550   -0.4727625695
H       -0.1314311869    0.2222163964   -0.3526814526
H       -0.4264857159    2.6698885117    2.3030802189
H        1.2178875191    2.7338316442    2.9706831604
H        0.0077700261    1.6888940694    3.8036988611
H        0.0578600711    3.2133918114   -2.5719272165
H        0.2751224779    3.3690635300   -0.7949783508
27   
torsion grid (-105,)
C        4.2621469179    2.1606478701   -2.5974047782
C        2.8762738813    1.5295388811   -2.5773185310
O        2.0614224645    2.2305889030   -1.8034557631
C        0.6604728771    1.7676199598   -1.5835517082
C        0.5970863711    0.8934461441   -0.3466816256
O        0.9858332801    1.6937307072    0.7825317634
C        0.6065032804    1.2310046131    2.0038879333
C        0.3573704420    2.3835320859    2.9315792865
O        0.5442374301    0.0399036455    2.2773901143
C       -0.2366281161    3.0170227742   -1.4984021773
O       -1.5340367111    2.5735461389   -1.2764952959
P       -2.2999208109    2.9121134090    0.3348744857
O       -2.2252037809    1.5169343644    0.9820341164
O       -3.6817011627    3.4094016060   -0.0724770344
O       -1.3489012963    3.9575621161    0.9607976139
H        0.3820424254    1.1574904313   -2.4455183824
O        2.6058458195    0.5073357399   -3.1989746854
H        4.7443550723    1.9908753453   -1.6287199318
H        4.1894459377    3.2422425036   -2.7415385099
H        4.8645464831    1.7075783365   -3.3874614201
H        1.2531080691    0.0192668867   -0.4434422927
H       -0.4476073659    0.5928887526   -0.1955093846
H       -0.4181572644    3.0111945110    2.4445137963
H        1.2655586502    2.9958362518    3.0175732335
H        0.0532493235    2.0115483602    3.9133917929
H       -0.1505723753    3.5554049610   -2.4648506508
H        0.1106236373    3.6748701052   -0.6915604225
27   
torsion grid (-90,)
C        4.4835593982    2.2445420357   -2.5241535129
C        3.0734621416    1.6711461332   -2.5777892531
O        2.2468523279    2.4098775434   -1.8538620780
C        0.8174407762    1.9993027558   -1.7037043382
C        0.6660338904    1.1328814374   -0.4719443436
O        1.0006505712    1.9355630474    0.6743709024
C        0.4787887214    1.5210093968    1.8638200863
C        0.1683799546    2.7069641548    2.7309234347
O        0.3817024880    0.3412685255    2.1726671614
C       -0.0156246400    3.2935027238   -1.6689558939
O       -1.3670122037    2.9632669541   -1.6338113149
P       -2.2440663837    3.1623397297   -0.0638617405
O       -2.0411914172    1.7788889649    0.5900050825
O       -3.6490754760    3.4924767697   -0.5479462676
O       -1.4532714877    4.2919032973    0.6327170505
H        0.5574692785    1.4039606727   -2.5813440504
O        2.7970535016    0.6557025420   -3.2078874385
H        4.9126798146    2.0390186831   -1.5374768089
H        4.4631235095    3.3302063618   -2.6531585781
H        5.1030738009    1.7775122780   -3.2926363203
H        1.3124273895    0.2475616920   -0.5253547374
H       -0.3941909318    0.8590540283   -0.3757172979
H       -0.5418416406    3.3427328864    2.1651260141
H        1.0834956431    3.2928529264    2.8973581259
H       -0.2419766210    2.3682638794    3.6859500463
H        0.2238786722    3.8553668549   -2.5943040308
H        0.2752187244    3.9034371234   -0.8047031337
27   
torsion grid (-75,)
C        4.5999198385    2.1965950031   -2.5818176031
C        3.2084026488    1.5770758478   -2.5709036852
O        2.3841684626    2.3054916082   -1.8342397219
C        0.9779466933    1.8425290749   -1.6120174065
C        0.9341768084    0.9613857271   -0.3831599656
O        1.2580582918    1.7808243301    0.7558883002
C        0.7018564954    1.3917791134    1.9440912778
C        0.3305856076    2.5946957854    2.7633626960
O        0.6457602662    0.2216650286    2.2946387417
C        0.1261210189    3.1230011094   -1.5251156363
O       -1.2363458519    2.8371906901   -1.5632719837
P       -2.1279152737    2.8275440886    0.0034571392
O       -1.6790402496    1.4990887488    0.6534324421
O       -3.5658990596    2.9041052490   -0.4855248971
O       -1.5446513919    4.0600123513    0.7290233681
H        0.6891593633    1.2519594244   -2.4838082727
O        2.9436146486    0.5384803358   -3.1670968587
H        5.0758868347    2.0146469384   -1.6120825291
H        4.5392847956    3.2796079745   -2.7199216723
H        5.2021030816    1.7411729011   -3.3707927738
H        1.6387909531    0.1239985439   -0.4680658089
H       -0.1021558207    0.6205762795   -0.2517205806
H       -0.4266151049    3.1666512522    2.1910553003
H        1.2123062526    3.2377588404    2.8960750996
H       -0.0511912923    2.2734687210    3.7364027324
H        0.4029581737    3.7345604908   -2.4064658129
H        0.3979053140    3.6855445725   -0.6233566422
27   
torsion grid (-60,)
C        4.5484428907    2.0491533491   -2.6176424261
C        3.1324830170    1.4885340312   -2.5782069624
O        2.3602310231    2.2391714736   -1.8082050635
C        0.9370872761    1.8365268253   -1.5622440537
C        0.8988912888    0.9158890522   -0.3602168200
O        1.2133007645    1.6992795570    0.8082028117
C        0.5429198043    1.3524656127    1.9544823973
C        0.1527470209    2.5784882830    2.7299163319
O        0.4172169975    0.1911817525    2.3137069593
C        0.1687877601    3.1681136630   -1.4195577725
O       -1.2073715762    3.0535352722   -1.5904888580
P       -2.2163043280    2.8419883307   -0.1165815171
O       -1.6824096676    1.5312994561    0.5054169447
O       -3.6075708976    2.8081645183   -0.7283238066
O       -1.8199959506    4.0695949008    0.7321953873
H        0.5961850585    1.2934414379   -2.4457372557
O        2.8078317301    0.4724608994   -3.1831531954
H        5.0404799114    1.8384871310   -1.6618114231
H        4.5298452036    3.1350064728   -2.7454829338
H        5.1111993079    1.5767188831   -3.4254411698
H        1.6164128364    0.0921314050   -0.4707438880
H       -0.1329698613    0.5610289155   -0.2511544945
H       -0.6064151367    3.1279603269    2.1378276247
H        1.0262645573    3.2333345678    2.8548811135
H       -0.2430105228    2.2858871482    3.7067625821
H        0.5730219809    3.8208510349   -2.2168326060
H        0.4248239078    3.6268184590   -0.4559717652
27   
torsion grid (-45,)
C        4.1211223193    2.3540144338   -3.6763178949
C        2.9795678188    1.6395231909   -2.9682230096
O        2.3057530524    2.4902302126   -2.2057411089
C        1.1560408107    2.0028297825   -1.4005980109
C        1.6516435782    1.4494136553   -0.0763158611
O        2.1400845062    2.5387027043    0.7220029819
C        1.8481104847    2.4930871136    2.0580577491
C        1.6977248686    3.8677328735    2.6060635783
O        1.6923280848    1.4352864925    2.6556988170
C        0.1968913253    3.1873820816   -1.2390655658
O       -0.8369289789    2.7726374716   -0.4058205493
P       -1.6663237585    4.1071526107    0.5023918510
O       -0.4496358158    4.9373211128    1.0051194206
O       -2.4047876099    3.3037530363    1.5659339526
O       -2.4830462183    4.8059471357   -0.5862869194
H        0.6932212984    1.1857449285   -1.9595301833
O        2.7550877470    0.4419301830   -3.1050760308
H        4.8707622585    2.6557160283   -2.9372319580
H        3.7565528361    3.2640721472   -4.1610560305
H        4.5771755736    1.6865576516   -4.4099205930
H        2.4456682909    0.7076141769   -0.2256463721
H        0.8044196055    0.9826728327    0.4271374641
H        0.7447014071    4.2815320285    2.1403557099
H        2.5026625159    4.5216493850    2.2518263147
H        1.6540350700    3.8417498086    3.6980220358
H       -0.1569625978    3.4805801081   -2.2476840385
H        0.7434608900    4.0384998019   -0.8116058981
27   
torsion grid (-30,)
C        4.1831289139    2.3726964185   -3.6679302452
C        2.9954237818    1.6775518865   -3.0184696396
O        2.3032412966    2.5377056511   -2.2839894506
C        1.1104435248    2.0694116884   -1.5311407242
C        1.5349860341    1.5220622739   -0.1810971209
O        2.0457152764    2.6094723750    0.6064756966
C        1.8334423714    2.5373783849    1.9527460033
C        1.6931004096    3.9054055966    2.5271440484
O        1.7342084025    1.4697823374    2.5445042907
C        0.1498130550    3.2619967394   -1.4244687391
O       -0.9386433761    2.8467516434   -0.6692221143
P       -1.6726380543    4.0621677902    0.4724957976
O       -0.4378829815    4.9336316626    0.8375547750
O       -2.1650835235    3.1338826166    1.5784761503
O       -2.7095450961    4.7712238442   -0.3978685968
H        0.6655907120    1.2522323373   -2.1043289485
O        2.7547271081    0.4853331705   -3.1732376596
H        4.9009011532    2.6590558185   -2.8920692574
H        3.8594732721    3.2904057818   -4.1672239372
H        4.6623276680    1.6987107910   -4.3805464530
H        2.2954885055    0.7389915775   -0.2862674426
H        0.6457303938    1.1133322810    0.3014273297
H        0.7468896223    4.3260378087    2.0700310077
H        2.5033476892    4.5574289010    2.1801814186
H        1.6586647929    3.8594329346    3.6186374445
H       -0.1296088610    3.5579160661   -2.4579656047
H        0.6673456721    4.1076155614   -0.9531723223
27   
torsion grid (-15,)
C        4.2676782605    2.1976188443   -3.3906166244
C        3.0257912204    1.5541812920   -2.7904134161
O        2.3336462490    2.4470441917   -2.0968036168
C        1.0943360034    2.0321823865   -1.3873737165
C        1.4371675127    1.5174817695   -0.0020112224
O        1.9690380373    2.6099008045    0.7630144441
C        1.8211298926    2.5323298090    2.1146691414
C        1.7187424394    3.9040507284    2.6982829864
O        1.7669587040    1.4651897690    2.7120421677
C        0.1523927582    3.2476414117   -1.3622933136
O       -0.9640070833    2.8789244099   -0.6276749514
P       -1.5603594991    3.9989605315    0.6843125070
O       -0.3516470649    4.9543529822    0.8699765239
O       -1.7505431583    2.9979182645    1.8255458428
O       -2.8030609260    4.6260736328    0.0582851650
H        0.6571011112    1.2072343852   -1.9552576304
O        2.7492805654    0.3697167578   -2.9457194307
H        4.9665024522    2.4480140769   -2.5855082535
H        4.0059952605    3.1308583840   -3.8973472053
H        4.7442099779    1.5047770554   -4.0868604781
H        2.1591391444    0.6931520774   -0.0473458650
H        0.5071967701    1.1791488189    0.4602118156
H        0.8065686117    4.3619992815    2.2324588082
H        2.5678393897    4.5198434966    2.3759704456
H        1.6658860635    3.8473965381    3.7883725288
H       -0.0914011144    3.5005905866   -2.4168714243
H        0.6676363303    4.1038456251   -0.9076913548
27   
torsion grid (0,)
C        4.3199221638    2.5897148197   -3.2570131517
C        3.0971983218    1.7932423821   -2.8226063373
O        2.2989851425    2.5448180157   -2.0785430215
C        1.0555695682    1.9638792779   -1.5011510952
C        1.3404528276    1.3961522307   -0.1234241349
O        1.7496565024    2.4766280700    0.7294347668
C        1.6337551031    2.2642274873    2.0676571513
C        1.3638381918    3.5604101422    2.7683147071
O        1.7612761996    1.1598253425    2.5795993963
C       -0.0179172823    3.0682621854   -1.4900834568
O       -1.1373019115    2.5233044410   -0.8792250183
P       -1.7685829243    3.2865217794    0.6472714306
O       -0.7836482667    4.4594998882    0.8754553481
O       -1.5594012652    2.1238010865    1.6292027276
O       -3.1972925437    3.6576388477    0.2682344043
H        0.7526882845    1.1383708021   -2.1494146191
O        2.9244956844    0.6199328302   -3.1351812174
H        4.9560186245    2.7725035690   -2.3844406949
H        4.0200563657    3.5643960293   -3.6522529965
H        4.8809207730    2.0283384706   -4.0068317619
H        2.1165854574    0.6218337195   -0.1640571068
H        0.4032048865    0.9869467175    0.2673997549
H        0.4279575205    3.9594698109    2.3146752950
H        2.1601646949    4.2824612651    2.5435253394
H        1.2859668391    3.3938498640    3.8457096399
H       -0.2135973709    3.3565138420   -2.5446769453
H        0.3538963689    3.9445364516   -0.9433567241
27   
torsion grid (15,)
C        4.2399473540    2.8345825342   -3.2558395953
C        3.0614655199    1.9518185549   -2.8668432663
O        2.2340083625    2.6109751079   -2.0701736948
C        1.0382305169    1.9213808309   -1.5030910897
C        1.3878592745    1.3053301345   -0.1632184628
O        1.7588018080    2.3682557852    0.7307879831
C        1.6887524965    2.0820060331    2.0597284279
C        1.3213138208    3.3159029790    2.8300966275
O        1.9583376857    0.9806945956    2.5199867406
C       -0.0996953664    2.9561279950   -1.4269238932
O       -1.2118280185    2.3097756333   -0.9006176310
P       -1.7584685911    2.7623341885    0.7684943558
O       -1.0077982391    4.0884628837    1.0318032894
O       -1.1855932746    1.5859320860    1.5841046595
O       -3.2696376150    2.8347868382    0.5999794048
H        0.7734982705    1.1150086293   -2.1905117600
O        2.9473842680    0.7934238195   -3.2537379760
H        4.9059117101    2.9370444095   -2.3922024231
H        3.8975871015    3.8372021183   -3.5264222366
H        4.7877343366    2.3785899549   -4.0831681139
H        2.2056363798    0.5801632968   -0.2604739762
H        0.4819788511    0.8357144579    0.2422184587
H        0.3531150177    3.6644804146    2.4139364675
H        2.0626441287    4.1054976325    2.6441747100
H        1.2693225804    3.0854864260    3.8974156336
H       -0.2921249373    3.3151317898   -2.4589160699
H        0.2059097500    3.8066136911   -0.8046672005
27   
torsion grid (30,)
C        4.1357991246    2.9898808623   -3.3627118287
C        2.9495397050    2.1278956247   -2.9505673151
O        2.1456698467    2.8038634100   -2.1444448464
C        0.9487356483    2.1321539101   -1.5512319745
C        1.3230906589    1.5152925753   -0.2211041904
O        1.6919813940    2.5835958163    0.6700919449
C        1.5677298023    2.3162804303    2.0021572295
C        1.1542834490    3.5565869809    2.7404436288
O        1.8545093981    1.2326125722    2.4918935005
C       -0.1567556308    3.2000526295   -1.4644124917
O       -1.3433470539    2.6069827211   -1.0428760255
P       -1.8612094470    2.8831926175    0.6670343992
O       -1.2815816605    4.2810774133    0.9791211406
O       -1.1222338623    1.7516959504    1.4144140198
O       -3.3726966990    2.7586083201    0.5434515879
H        0.6526741179    1.3341979108   -2.2352554050
O        2.8118411594    0.9694707645   -3.3295064899
H        4.8192192734    3.0821536660   -2.5115888496
H        3.8060405067    3.9977671787   -3.6293856050
H        4.6606378350    2.5229273871   -4.1987769824
H        2.1495211088    0.8015090730   -0.3307499217
H        0.4244722881    1.0412027165    0.1988892494
H        0.1882031410    3.8840425761    2.3060958761
H        1.8888923947    4.3548835960    2.5631861192
H        1.0799228448    3.3422032435    3.8099581457
H       -0.2755797571    3.6199636913   -2.4835162240
H        0.1547450684    4.0071840906   -0.7899607315
27   
torsion grid (45,)
C        4.2606356216    2.9384319256   -3.4599051981
C        3.0930662062    2.0853096138   -2.9811400735
O        2.3186535124    2.7798333002   -2.1622006314
C        1.1495244403    2.1169669009   -1.5019823656
C        1.6035695078    1.4999579138   -0.1973708720
O        1.9770846693    2.5720549660    0.6888738006
C        1.8005228696    2.3268150244    2.0241966444
C        1.3515765538    3.5753622366    2.7290193384
O        2.0988450455    1.2609598443    2.5437051937
C        0.0752318598    3.2136559513   -1.3694653290
O       -1.1673772113    2.6929273800   -1.0174833389
P       -1.6461889864    2.7859153124    0.7175311305
O       -1.2591584564    4.2315562346    1.0963384016
O       -0.7488558876    1.7242860462    1.3923634300
O       -3.1283032667    2.4580438345    0.6167844843
H        0.8050162900    1.3253453073   -2.1704286914
O        2.9438553033    0.9176987815   -3.3253994526
H        4.9783802391    3.0486720504   -2.6397192084
H        3.9193566144    3.9402869724   -3.7346906456
H        4.7511517546    2.4534663268   -4.3064845346
H        2.4488629344    0.8171578231   -0.3529689574
H        0.7382081881    0.9947602992    0.2526333534
H        0.3724910952    3.8692542374    2.3025259079
H        2.0659799768    4.3874557712    2.5322370153
H        1.2841157545    3.3860343746    3.8038914719
H        0.0064967050    3.6911580966   -2.3666266926
H        0.4151131860    3.9739586191   -0.6551239808
27   
torsion grid (60,)
C        4.2240877187    2.8124968491   -3.4867865378
C        3.0371218725    2.0022054476   -2.9815073312
O        2.3075260759    2.7243856132   -2.1452896391
C        1.1215861018    2.1062281453   -1.4668822566
C        1.5910313986    1.4558847678   -0.1814617966
O        1.9429506543    2.5029699376    0.7448898222
C        1.6445768547    2.2566365114    2.0616286129
C        1.1384174526    3.5027019407    2.7324852373
O        1.8967356936    1.1901073513    2.6020553014
C        0.1096046922    3.2636707164   -1.3160291109
O       -1.2052014874    2.8614768165   -1.1061280280
P       -1.7758476280    2.7026925525    0.5931452538
O       -1.5857399050    4.1308756067    1.1429636360
O       -0.8061725560    1.6736291641    1.2152757741
O       -3.2028759008    2.2292321532    0.3579965661
H        0.7265886453    1.3406891571   -2.1372934326
O        2.8372442514    0.8414721551   -3.3224870154
H        4.9632794004    2.8987396239   -2.6828660971
H        3.9126155429    3.8252290512   -3.7571580634
H        4.6785139937    2.3088916413   -4.3425191596
H        2.4550479827    0.8030635979   -0.3628376434
H        0.7383943665    0.9132759141    0.2423617497
H        0.1545749815    3.7553374406    2.2916305382
H        1.8254734317    4.3369579251    2.5342041622
H        1.0537214693    3.3315771524    3.8094620156
H        0.1619104520    3.8144864625   -2.2744906009
H        0.4634572208    3.9420438245   -0.5285373137
27   
torsion grid (75,)
C        4.4511601416    2.9402123299   -2.8895906427
C        3.3364417649    1.9430824280   -2.6098510900
O        2.4082777748    2.4939142611   -1.8389915091
C        1.2297908659    1.6914278368   -1.4208247564
C        1.5654371373    0.8935247374   -0.1734603532
O        1.7206280186    1.8051281931    0.9253473345
C        1.2225347091    1.3950687759    2.1314454078
C        0.7543783683    2.5633081168    2.9251340224
O        1.1500024317    0.2118236721    2.4395651801
C        0.0742440889    2.6772319720   -1.2139413946
O       -1.0081175672    1.9501676352   -0.7301680503
P       -2.1857108717    2.8982224831    0.2757151511
O       -2.9437783081    3.7217699722   -0.7665667626
O       -1.2243106455    3.7281676163    1.1742660678
O       -2.9236756757    1.7640288756    0.9776507741
H        1.0153405268    0.9868955020   -2.2282008959
O        3.3393247378    0.7984145565   -3.0491987681
H        4.9867392908    3.1536799349   -1.9586530880
H        4.0326287793    3.8848392740   -3.2485034099
H        5.1428794643    2.5254758158   -3.6252042571
H        2.4828804431    0.3078389525   -0.3087072447
H        0.7288723050    0.2234108072    0.0272880293
H       -0.1571899497    2.9624043417    2.3744065116
H        1.4899569176    3.3753224436    2.8983921241
H        0.5275963003    2.2623529403    3.9512313521
H       -0.1361926137    3.1645339793   -2.1873862595
H        0.3864575536    3.4561151017   -0.5055985728
27   
torsion grid (90,)
C        4.6149319726    2.6908688088   -2.7231723696
C        3.3960882565    1.8039446427   -2.5143883110
O        2.4665811108    2.4531232582   -1.8266104075
C        1.1929512631    1.7685796043   -1.4825998306
C        1.3582871254    0.9902148530   -0.1906404492
O        1.5560279712    1.9282176122    0.8791022008
C        1.0621136363    1.5709461129    2.0999782504
C        0.6482640476    2.7823877265    2.8636654570
O        0.9554926400    0.4015792350    2.4475997576
C        0.1078610998    2.8516359178   -1.4001694201
O       -1.0691223752    2.2249218014   -1.0142007569
P       -2.1632302479    3.1288726984    0.1292579655
O       -3.0766542085    3.9121615252   -0.8124643253
O       -1.1435728895    3.9975892766    0.9177915679
O       -2.7602851875    1.9622174689    0.9112094116
H        0.9815004955    1.0559065342   -2.2836050274
O        3.3282742401    0.6542814984   -2.9350313146
H        5.0871296244    2.8899457175   -1.7555612435
H        4.3135568625    3.6550579146   -3.1428099642
H        5.3260794769    2.1931447690   -3.3851295815
H        2.2034398007    0.2936479382   -0.2467848325
H        0.4326869564    0.4381083401   -0.0198135885
H       -0.2097255074    3.2279277498    2.2767523594
H        1.4410999641    3.5396060021    2.8489992283
H        0.3743442195    2.5129745099    3.8868809675
H        0.0358159964    3.3274130211   -2.4014409230
H        0.4111361828    3.6189877528   -0.6760780936
27   
torsion grid (105,)
C        4.7737453136    2.1743406671   -2.5781166665
C        3.4117973163    1.5308394775   -2.3599310633
O        2.6008130352    2.3702147229   -1.7314241724
C        1.2221249032    1.9397070583   -1.3771855056
C        1.2262928692    1.2451915552   -0.0283908710
O        1.6021715601    2.2071769194    0.9692989352
C        1.1527017501    1.9762540174    2.2340441144
C        0.9533374488    3.2720876210    2.9506182888
O        0.9397583673    0.8497284627    2.6632227030
C        0.3289061838    3.1913575278   -1.4078004923
O       -0.9360590561    2.7950483833   -1.0019713120
P       -1.7893090225    3.7651635496    0.2872358853
O       -2.8363603438    4.5400185567   -0.5085550509
O       -0.6335989324    4.6278232904    0.8612995383
O       -2.2575791883    2.6379044762    1.2087443506
H        0.9063608191    1.2132800531   -2.1300343088
O        3.1495949358    0.3895537900   -2.7236054771
H        5.2755946189    2.2877281078   -1.6113935460
H        4.6584955977    3.1746088145   -3.0051515757
H        5.3796942536    1.5458658946   -3.2336527716
H        1.9154138435    0.3921393319   -0.0180286911
H        0.2059702630    0.9085929332    0.1686911760
H        0.1790753350    3.8270725950    2.3568635705
H        1.8663511882    3.8788132487    2.9031542598
H        0.6562998490    3.0892637999    3.9863373538
H        0.3425183353    3.5835539980   -2.4476983164
H        0.7436804325    3.9572054992   -0.7395285917
27   
torsion grid (120,)
C        4.7807903695    2.0015650222   -2.4695138609
C        3.3783717858    1.4191269926   -2.3599436499
O        2.5731642410    2.2705084810   -1.7415162147
C        1.1563222887    1.8960696091   -1.4785362904
C        1.0427465089    1.2156546605   -0.1273290723
O        1.4384028117    2.1589007387    0.8811322674
C        1.0037997020    1.9085464616    2.1452638191
C        0.8070978236    3.1982280856    2.8806100774
O        0.8281401445    0.7767012620    2.5766194959
C        0.3052226172    3.1752103569   -1.5852740637
O       -0.9962224387    2.8110871575   -1.2745053418
P       -1.8107016004    3.5841770897    0.1582492046
O       -3.0171627755    4.2664660624   -0.4769938593
O       -0.7185204592    4.5475840877    0.6882735538
O       -2.0342569299    2.3504854891    1.0422186619
H        0.8643652165    1.1743122803   -2.2449295991
O        3.0858862619    0.3085841778   -2.7903760693
H        5.2360723944    2.0260777064   -1.4737334925
H        4.7394197428    3.0314817019   -2.8350773645
H        5.3882799810    1.3832230973   -3.1333762608
H        1.6679532532    0.3155643018   -0.0796677778
H       -0.0112054882    0.9649279017    0.0304997104
H        0.0656824033    3.7764616755    2.2804434367
H        1.7384622456    3.7798029629    2.8774290140
H        0.4777590664    3.0000351587    3.9038000303
H        0.3973506290    3.5530782703   -2.6254987586
H        0.6869955231    3.9370534265   -0.8933523513
27   
torsion grid (135,)
C        4.5974490643    2.5724638415   -2.3800566457
C        3.3058335794    1.7679626909   -2.4419397738
O        2.3417555248    2.3909813419   -1.7813056264
C        0.9985781680    1.7546588661   -1.6485873914
C        0.9481509952    0.9218573925   -0.3830929296
O        1.1396573300    1.8047470605    0.7355049887
C        0.7126261028    1.3439669531    1.9426357151
C        0.2306946458    2.4883018653    2.7841045777
O        0.7814448311    0.1669647173    2.2701468303
C       -0.0530712033    2.8790984165   -1.6879774897
O       -1.3019445896    2.2811248565   -1.5714385806
P       -2.2404826147    2.5389751161   -0.0397716032
O       -3.6349506366    2.8441338400   -0.5710021074
O       -1.5011309351    3.7282210859    0.6194012546
O       -2.0013254397    1.1974282016    0.6764706970
H        0.8716167656    1.0855830642   -2.5024390265
O        3.2248014110    0.6915184470   -3.0243844954
H        5.0210093716    2.4856030564   -1.3736083820
H        4.4003488211    3.6324489156   -2.5623583505
H        5.3120884530    2.1830738884   -3.1081594846
H        1.7161697860    0.1382987188   -0.3915634554
H       -0.0588940750    0.4932988104   -0.2973798012
H       -0.5761737085    2.9822400600    2.2009096840
H        1.0373232233    3.2233686175    2.9113685442
H       -0.1068720434    2.1194121610    3.7562058641
H        0.0551868433    3.4011188828   -2.6609028029
H        0.1296018967    3.5947315640   -0.8764968829
27   
torsion grid (150,)
C        4.5652685349    2.5999961204   -2.4239608042
C        3.2516042159    1.8313620163   -2.4835424595
O        2.3113885752    2.4711689182   -1.8055684264
C        0.9520454972    1.8651077073   -1.6639191574
C        0.9030749421    1.0206722900   -0.4089200017
O        1.0986877085    1.8959747689    0.7168347960
C        0.6087815628    1.4512135268    1.9092984585
C        0.1081363915    2.6087057422    2.7237192302
O        0.6705904635    0.2804652997    2.2585872802
C       -0.0549385187    3.0295361927   -1.6806676026
O       -1.3492679382    2.5182297906   -1.6737365710
P       -2.2849089016    2.6129271991   -0.1288665505
O       -3.7103686279    2.7240218247   -0.6503453556
O       -1.6907158477    3.8653519794    0.5547913880
O       -1.8834562421    1.2971430947    0.5707408268
H        0.7953163170    1.2154728344   -2.5274729065
O        3.1367175862    0.7652183353   -3.0790673618
H        4.9950541755    2.4899659694   -1.4224006961
H        4.3955860566    3.6669945864   -2.5926161357
H        5.2627241118    2.1998924471   -3.1628560385
H        1.6702497796    0.2361056748   -0.4255498253
H       -0.1092368002    0.6013861756   -0.3196247137
H       -0.6811558142    3.1060969621    2.1238389581
H        0.9195833439    3.3348330047    2.8734001831
H       -0.2615427611    2.2501278322    3.6881339189
H        0.1311529846    3.6006955811   -2.6125101863
H        0.1234827871    3.6916406560   -0.8243760453
27   
torsion grid (165,)
C        4.6951256866    2.3467978620   -2.4170778850
C        3.3751167395    1.5869343088   -2.4374976309
O        2.4579821427    2.2355229780   -1.7368909507
C        1.1004686635    1.6329370237   -1.5492370038
C        1.1094096783    0.7658392272   -0.3096944100
O        1.3102490331    1.6267104348    0.8270033145
C        0.7559101485    1.1955986465    2.0019003189
C        0.2402914390    2.3633838000    2.7941280992
O        0.8096190520    0.0301469407    2.3679845115
C        0.1206395057    2.8206029701   -1.5056025408
O       -1.2044482953    2.3982242818   -1.5793802334
P       -2.1365378823    2.3141187402   -0.0389541992
O       -3.5569860794    2.2089128119   -0.5724373651
O       -1.7179253395    3.6134519019    0.6813649578
O       -1.5696863281    1.0479577899    0.6439323389
H        0.9002863782    1.0062381344   -2.4206549187
O        3.2369605356    0.5193246377   -3.0251331899
H        5.1545020129    2.2320904018   -1.4292491720
H        4.5277815703    3.4151583751   -2.5793395404
H        5.3669990707    1.9428825996   -3.1772930598
H        1.8993440890    0.0053948377   -0.3613311591
H        0.1102792087    0.3207479645   -0.2049266915
H       -0.5491545395    2.8539206926    2.1921639199
H        1.0506765536    3.0897886235    2.9503555196
H       -0.1418963869    2.0135826658    3.7570688952
H        0.3610177158    3.4473393019   -2.3869758271
H        0.3074533694    3.4182036408   -0.6047495258
27   
torsion grid (180,)
C        4.7410765030    2.3381766349   -2.4654388012
C        3.4149684609    1.5884264502   -2.4556511805
O        2.5181057071    2.2458774532   -1.7371799866
C        1.1559445501    1.6563589787   -1.5257904327
C        1.1968501564    0.7772577061   -0.2935819545
O        1.3573744968    1.6317001314    0.8560152052
C        0.6999116194    1.2276008237    1.9910082251
C        0.1256149374    2.4106349113    2.7192896249
O        0.7258853357    0.0716323436    2.3867361385
C        0.2051871959    2.8702945049   -1.4573107772
O       -1.1345274784    2.5524019350   -1.6585024345
P       -2.1526475184    2.2656126917   -0.2028661678
O       -3.4918724625    1.9605463826   -0.8562438731
O       -1.9784746293    3.5733850951    0.5940274700
O       -1.4657115777    1.0621676511    0.4861971679
H        0.9280045282    1.0439038762   -2.4002148876
O        3.2563282141    0.5207033329   -3.0374875821
H        5.2232289964    2.2189820746   -1.4889878410
H        4.5784515079    3.4078934209   -2.6234642706
H        5.3916358517    1.9294679003   -3.2414417644
H        2.0225127876    0.0556582921   -0.3501326256
H        0.2183751278    0.2894563840   -0.2057205261
H       -0.6731457969    2.8452739393    2.0890866254
H        0.9047120668    3.1726671008    2.8615252801
H       -0.2680298777    2.0893516615    3.6878411241
H        0.5384164857    3.5448325546   -2.2693480336
H        0.3650282515    3.3954243544   -0.5068391767
