20   
torsion grid (-165,)
C       -0.6612342359    0.3240862377    1.1997738034
C        0.3150720002   -0.6900459241    1.4296190410
C       -0.4398763340    1.0085275878    0.0281049933
C        1.2494431438   -0.7377379356    0.4232250799
C        5.1462758721   -1.5573269542   -0.1244242522
C        4.0859391101   -0.1392385048    1.5726652774
N        3.9132770583   -0.8699570105    0.3067319028
O        2.5073516200   -2.7085350588    1.5610383386
O        2.5553677420   -2.5828097820   -0.9776600937
S        0.9519660900    0.4343953017   -0.8220325526
S        2.5670306172   -1.9158316980    0.3249746098
H       -1.4880629385    0.5355918230    1.8692566632
H        0.3447611490   -1.3586384696    2.2826562081
H       -1.0204308153    1.8236998447   -0.3863987223
H        4.9566408423   -2.0933573646   -1.0541626927
H        5.5242137069   -2.2556103789    0.6345898722
H        5.9008442518   -0.7882771162   -0.3088898399
H        3.1608853485    0.3781391074    1.8344209697
H        4.8637154931    0.6128012863    1.4164453754
H        4.3774116536   -0.7983800194    2.4008760851
20   
torsion grid (-150,)
C       -0.6980509360    0.3833648117    1.1700669590
C        0.2660497643   -0.6229718660    1.4763234014
C       -0.4411673200    1.0086116211   -0.0266957414
C        1.2263560364   -0.7250035083    0.4990280855
C        5.0683327574   -1.4338712709   -0.2344046919
C        4.1700534735   -0.2166304761    1.7259407580
N        3.8872944149   -0.8794745325    0.4465208048
O        2.4554202165   -2.6292050447    1.7731977594
O        2.5415337585   -2.6419273486   -0.7717253580
S        0.9728641024    0.3900521194   -0.8071051885
S        2.5429357182   -1.9102535298    0.4961519967
H       -1.5417611484    0.6309499638    1.8052538331
H        0.2670368279   -1.2505976074    2.3605397850
H       -1.0061786495    1.8038177573   -0.4975641326
H        4.7642217318   -1.8892507245   -1.1758906971
H        5.5970530609   -2.1784321052    0.3766469547
H        5.7448674803   -0.6007837513   -0.4437234576
H        3.2583455453    0.2436021517    2.1138644050
H        4.8973389686    0.5774680023    1.5374445705
H        4.5692568026   -0.9085091049    2.4784156016
20   
torsion grid (-135,)
C       -0.6803963936    0.4436159288    1.0868745758
C        0.2702152568   -0.5520876207    1.4650690086
C       -0.4330261191    0.9564019973   -0.1634759005
C        1.2105674998   -0.7607212555    0.4858533827
C        4.9988904302   -1.3101188409   -0.3151368033
C        4.2432548005   -0.3492721942    1.8570844020
N        3.8830831856   -0.9302596959    0.5605780574
O        2.3970549176   -2.6023108777    1.8802050116
O        2.5685432808   -2.7054158872   -0.6665199542
S        0.9548442319    0.2411124046   -0.9093275410
S        2.5332723550   -1.9380996020    0.5797454857
H       -1.5095779557    0.7611669391    1.7100259863
H        0.2727394638   -1.1010018716    2.4001301569
H       -0.9940782982    1.7142186097   -0.6965561426
H        4.6100560639   -1.7143195185   -1.2483750895
H        5.6608595238   -2.0537848736    0.1493322584
H        5.5739373356   -0.4046555848   -0.5298523034
H        3.3504139661    0.0397175437    2.3517242960
H        4.9216597680    0.4883629527    1.6734738113
H        4.7286025385   -1.0750752310    2.5213530775
20   
torsion grid (-120,)
C       -0.6212184108    0.5096405545    1.0394643459
C        0.3190354952   -0.4731258294    1.4748029112
C       -0.4309369646    0.8742683495   -0.2710338516
C        1.1942798803   -0.8231329343    0.4762906054
C        4.9120975781   -1.1605271110   -0.3600320074
C        4.3040346503   -0.4936519307    1.9737605367
N        3.8816016270   -1.0030422162    0.6689826973
O        2.3522318087   -2.6174170297    1.9460468436
O        2.5932189570   -2.7614306444   -0.6027293189
S        0.8866785764    0.0265538320   -1.0073052942
S        2.5259999731   -1.9848968806    0.6364109827
H       -1.4062412724    0.9198215854    1.6657905815
H        0.3535040032   -0.9193149776    2.4623999263
H       -1.0034796658    1.5831788168   -0.8564891700
H        4.4595142705   -1.5141796278   -1.2850235060
H        5.6907057906   -1.8725228984   -0.0550160304
H        5.3703719326   -0.1824344573   -0.5374625544
H        3.4323475955   -0.2273221047    2.5742340049
H        4.8949723346    0.4123671255    1.8104290275
H        4.9036020031   -1.2242071959    2.5309266553
20   
torsion grid (-105,)
C       -0.3929852640    0.5903689140    1.1422333437
C        0.4134506106   -0.5235369597    1.5259434330
C       -0.1086051240    1.0352234721   -0.1259195695
C        1.2850709679   -0.8942263104    0.5317137002
C        4.8986406810   -1.2495827195   -0.2712898093
C        4.0404121161   -0.3799350502    1.9194904451
N        3.9540162527   -1.3574782380    0.8390634809
O        2.2116385838   -2.8635546704    1.9033985630
O        2.5958295205   -2.8869494415   -0.6265175120
S        1.1363716160    0.1028734574   -0.8858612516
S        2.5125700852   -2.1753185165    0.6482031941
H       -1.1542052902    1.0354073188    1.7742059531
H        0.3621164999   -1.0419812291    2.4767138206
H       -0.5758258807    1.8475792627   -0.6689076970
H        4.7331480067   -2.0663970398   -0.9713982498
H        5.9135570728   -1.3292718862    0.1310590655
H        4.8000658253   -0.2918876089   -0.8030162362
H        3.4397782701   -0.7115968724    2.7674924434
H        3.7032755376    0.6171236905    1.6020334114
H        5.0813864956   -0.3164115753    2.2497056079
20   
torsion grid (-90,)
C       -0.2888562067    0.6335466100    1.0840293486
C        0.5010698998   -0.4729145977    1.5186549800
C       -0.0469053895    0.9722267032   -0.2254625654
C        1.3173508254   -0.9461857603    0.5201368162
C        4.7748896268   -1.1281084503   -0.2892089403
C        4.0537020525   -0.5064205641    2.0123228019
N        3.9890221613   -1.4574224191    0.9024411410
O        2.2017683069   -2.9067744571    1.9489040089
O        2.6130483860   -2.9663455815   -0.5805208573
S        1.1358763432   -0.0537831587   -0.9622284766
S        2.5217557708   -2.2431268239    0.6863678462
H       -1.0104183961    1.1477517624    1.7100019934
H        0.4723418428   -0.9176536522    2.5070058504
H       -0.5144236286    1.7556033050   -0.8092835729
H        4.6864079903   -1.9319927223   -1.0177084367
H        5.8219500152   -1.0408619770    0.0148061614
H        4.4601703602   -0.1793018764   -0.7498666296
H        3.5459863166   -0.9248925531    2.8820259397
H        3.6045637308    0.4643564211    1.7561980632
H        5.1051051760   -0.3550172754    2.2712211807
20   
torsion grid (-75,)
C       -0.1945517952    0.7107610846    1.0204224172
C        0.6038178100   -0.3669731190    1.5065444738
C       -0.0419579636    0.9115026339   -0.3308027401
C        1.3376050514   -0.9570970028    0.5047410456
C        4.6196435696   -0.9609983406   -0.2949236467
C        4.1263277141   -0.6741616541    2.1127146669
N        4.0113101477   -1.5180772931    0.9188394643
O        2.1955521628   -2.9056724509    1.9934112679
O        2.5883372973   -3.0124284709   -0.5400290003
S        1.0648068224   -0.2109722646   -1.0423628400
S        2.5161512603   -2.2704084598    0.7170585157
H       -0.8601722540    1.3017471304    1.6405614812
H        0.6305367770   -0.7157403935    2.5328456900
H       -0.5359455674    1.6455394829   -0.9555545465
H        4.5093166142   -1.6688831831   -1.1152303091
H        5.6853586612   -0.8167073365   -0.0975891308
H        4.1789590391    0.0063946833   -0.5788827999
H        3.7237434559   -1.2063523969    2.9744112000
H        3.6062383439    0.2883703109    1.9948936837
H        5.1881838020   -0.4829130624    2.2884169265
20   
torsion grid (-60,)
C       -0.1127376328    0.7704019969    0.9066448242
C        0.7096516276   -0.2589653620    1.4527936796
C       -0.0655330148    0.8067556881   -0.4670345816
C        1.3572784419   -0.9754335753    0.4731256018
C        4.4688848294   -0.7900702385   -0.2543160904
C        4.2311266357   -0.8576049190    2.1886263973
N        4.0331264572   -1.5649035019    0.9157861065
O        2.1984228063   -2.8947821267    2.0424192213
O        2.5648487825   -3.0703750318   -0.4909801309
S        0.9687492522   -0.4125251008   -1.1244651658
S        2.5150441316   -2.2958890304    0.7477006226
H       -0.7208706342    1.4432650607    1.5018576941
H        0.8056034047   -0.4898391719    2.5079876858
H       -0.5988376174    1.4729908444   -1.1340680600
H        4.2914545946   -1.3668153900   -1.1622119160
H        5.5443191389   -0.6179897631   -0.1599505802
H        3.9592214091    0.1816066336   -0.3256007376
H        3.9266646015   -1.4987466348    3.0146034474
H        3.6755458844    0.0920563926    2.2295583339
H        5.2985300195   -0.6422280426    2.2856214685
20   
torsion grid (-45,)
C       -0.0656484230    0.8469344574    0.7676614516
C        0.7754389226   -0.1330765378    1.3727105670
C       -0.1163791923    0.7191278896   -0.6006668243
C        1.3387317067   -0.9751711669    0.4419776544
C        4.3041933029   -0.6105740588   -0.1671089879
C        4.3419785984   -1.0452677635    2.2346742922
N        4.0201438722   -1.5811781142    0.9009117765
O        2.1702343935   -2.8422786773    2.1074618317
O        2.4971526818   -3.1196312170   -0.4204038668
S        0.8449249122   -0.5956522669   -1.1792051033
S        2.4786957533   -2.2953346326    0.7873129501
H       -0.6170322751    1.6009046182    1.3193663820
H        0.9410586946   -0.2399772348    2.4392219115
H       -0.6856862289    1.3154941701   -1.3031698657
H        4.0540364660   -1.0436159581   -1.1366789991
H        5.3777911982   -0.4059255360   -0.1543558118
H        3.7581591996    0.3333390970   -0.0302228081
H        4.1095525213   -1.7868777576    2.9964687984
H        3.8039391827   -0.1097016321    2.4523432256
H        5.4160120224   -0.8415858834    2.2538312957
20   
torsion grid (-30,)
C       -0.0651963998    0.8974203605    0.6337345684
C        0.7935565903   -0.0275790229    1.2975369912
C       -0.1647283201    0.6429219473   -0.7141975614
C        1.3209021654   -0.9549534647    0.4294176597
C        4.1943613557   -0.4401068066   -0.0499701617
C        4.5089251395   -1.2327573820    2.2303003780
N        4.0164465004   -1.5644268614    0.8806748228
O        2.1617362203   -2.7058986503    2.2238728064
O        2.4163807498   -3.1744771117   -0.2795018035
S        0.7688990172   -0.7278113966   -1.2007550885
S        2.4494688991   -2.2589652407    0.8605928440
H       -0.5936905964    1.7035379085    1.1314103733
H        0.9989496443   -0.0342333681    2.3626467676
H       -0.7562692188    1.1754186551   -1.4489773594
H        3.8579514169   -0.7224916416   -1.0489523663
H        5.2645142121   -0.2252479311   -0.1080197111
H        3.6632920929    0.4661441775    0.2731412945
H        4.3562018923   -2.0754246231    2.9011409688
H        4.0236714733   -0.3398214755    2.6525322822
H        5.5817222308   -1.0402486394    2.1421174303
20   
torsion grid (-15,)
C       -0.0981457882    0.9228002605    0.4835923090
C        0.7790109693    0.0638429974    1.2086759453
C       -0.2285487110    0.5457419287   -0.8327389400
C        1.2893132175   -0.9371251246    0.4162217476
C        4.1151515178   -0.2729724764    0.1035868253
C        4.6629970530   -1.4459121639    2.1722417796
N        3.9890246644   -1.5231629242    0.8639120393
O        2.1445169790   -2.5242314788    2.3470240011
O        2.3364547288   -3.2378873691   -0.0960953853
S        0.6962443832   -0.8635406627   -1.2140610378
S        2.4112027138   -2.2091375335    0.9408604754
H       -0.6173619843    1.7705658806    0.9177474595
H        1.0109706084    0.1554805726    2.2643992557
H       -0.8389388808    1.0084490473   -1.5987111998
H        3.6687336909   -0.3799483802   -0.8859228267
H        5.1826404643   -0.0817807872   -0.0352829117
H        3.6615647314    0.5888372265    0.6134239692
H        4.5729359865   -2.3936959071    2.6995979754
H        4.2664525642   -0.6440948792    2.8114501783
H        5.7214322590   -1.2549076287    1.9743320746
20   
torsion grid (0,)
C       -0.1405444189    0.9276114285    0.3435107403
C        0.7334334547    0.1282310949    1.1369162293
C       -0.2391012719    0.4700271528   -0.9499452151
C        1.2743034023   -0.9093087393    0.4158084125
C        4.0683881753   -0.1272840000    0.2579052243
C        4.7953507452   -1.6351881946    2.0542016800
N        3.9600184241   -1.4632589739    0.8543857858
O        2.1358103946   -2.2748533790    2.4881211191
O        2.2850094750   -3.2937689641    0.1613493543
S        0.7124660142   -0.9456872277   -1.2273398403
S        2.3860461266   -2.1352983575    1.0480137699
H       -0.6810511551    1.7915243304    0.7152888095
H        0.9446564276    0.2850951537    2.1891166112
H       -0.8404774530    0.8761190992   -1.7541830728
H        3.5321859623   -0.0823399476   -0.6900166606
H        5.1275606575    0.0449255418    0.0474108914
H        3.7047313305    0.6758173596    0.9157539061
H        4.7302774849   -2.6618536594    2.4142677664
H        4.5141069009   -0.9570074978    2.8711748540
H        5.8293495689   -1.4401510963    1.7567376546
20   
torsion grid (15,)
C       -0.5549224866   -1.0251643531    1.5733236056
C        0.5989150942   -1.3626368427    0.8073828001
C       -0.7274666694    0.3345032816    1.6908990612
C        1.2691437710   -0.2440833642    0.3738278954
C        3.7281314410   -0.4327765116    1.9144315374
C        5.2220616530   -0.8229940147   -0.0109049559
N        4.0150957015   -0.1575145764    0.5029551148
O        2.7826459197   -1.5568492977   -1.2982094961
O        2.7511586162    0.9789312620   -1.4216750803
S        0.4963484591    1.2322652842    0.8645979535
S        2.7266250928   -0.2490938416   -0.6282293897
H       -1.2326597593   -1.7534940417    2.0056100832
H        0.9224248886   -2.3689564280    0.5654711157
H       -1.5236637693    0.8613833977    2.2025843352
H        2.9355235278    0.2179128735    2.2821507063
H        4.6383296742   -0.1988899477    2.4737066706
H        3.4573705231   -1.4809043827    2.1123599859
H        5.4023254889   -0.5190012548   -1.0434228031
H        5.1514045147   -1.9180266033    0.0289801148
H        6.0668811372   -0.4850918385    0.5952534261
20   
torsion grid (30,)
C       -0.6329392680   -0.9255133044    1.5609369430
C        0.5037500184   -1.3474236064    0.8110620158
C       -0.7091915609    0.4430948586    1.6741398866
C        1.2583408035   -0.2811990336    0.3847268821
C        3.7411418977   -0.6026919907    1.9059305489
C        5.2674563209   -0.6030789939   -0.0383837896
N        3.9779204151   -0.1715486259    0.5237616801
O        2.7538818097   -1.7853051540   -1.1138630369
O        2.7767187962    0.7149534646   -1.5463721075
S        0.5874150468    1.2481121837    0.8627066953
S        2.7166725237   -0.4043604520   -0.6071565636
H       -1.3655148153   -1.6022698530    1.9874920715
H        0.7627977786   -2.3742533225    0.5787603430
H       -1.4699049052    1.0275099628    2.1772775199
H        2.8692245661   -0.0997868408    2.3219895851
H        4.6154317265   -0.2974535213    2.4873323011
H        3.6173264162   -1.6913727171    2.0086372732
H        5.3775317320   -0.2042631601   -1.0486103326
H        5.3674981617   -1.6961358941   -0.0687172751
H        6.0600762199   -0.1783428062    0.5831150745
20   
torsion grid (45,)
C       -0.6983590917   -0.8434049407    1.5376583105
C        0.4212942604   -1.3563963881    0.8190281226
C       -0.6724045529    0.5276522227    1.6415897836
C        1.2652712099   -0.3540175115    0.4056906871
C        3.8106549019   -0.7895386588    1.8992846229
C        5.2927057893   -0.3996111660   -0.0385625933
N        3.9579923898   -0.2174718943    0.5554748894
O        2.7527178686   -2.0285848780   -0.9007735184
O        2.8120542764    0.4047802219   -1.6219476357
S        0.7029344320    1.2250740781    0.8605319304
S        2.7267239961   -0.5974803572   -0.5600805038
H       -1.4888699285   -1.4595528231    1.9524249477
H        0.6115119619   -2.4017944616    0.6038097506
H       -1.3957853128    1.1718068566    2.1265458934
H        2.8528768903   -0.5029099601    2.3324158155
H        4.6043425376   -0.3644520500    2.5194707783
H        3.9017459271   -1.8856100382    1.9110991497
H        5.3203795349    0.0764123267   -1.0198538957
H        5.5661374010   -1.4588976011   -0.1358249413
H        6.0161139182    0.1032955239    0.6084568155
20   
torsion grid (60,)
C       -0.7727963121   -0.7286587734    1.4981926815
C        0.3275731186   -1.3362937820    0.8242141651
C       -0.6429202593    0.6370820799    1.5891152643
C        1.2610948428   -0.4080842721    0.4303639133
C        3.9088707955   -0.9745129233    1.8805336835
C        5.2597456375   -0.1931169577   -0.0320721501
N        3.9271081472   -0.2728138926    0.5901498929
O        2.7320325696   -2.2372598521   -0.6769108091
O        2.8300345962    0.1045728359   -1.6585680375
S        0.8117098769    1.2145108067    0.8542792889
S        2.7230494795   -0.7782544893   -0.4965488691
H       -1.6210305293   -1.2765053245    1.8943661430
H        0.4440404877   -2.3963819101    0.6289166586
H       -1.3264059100    1.3416610254    2.0471503725
H        2.9116819460   -0.9238720454    2.3204708994
H        4.6020322610   -0.4554875856    2.5477031287
H        4.2117645072   -2.0268990041    1.7928705837
H        5.1869017168    0.3516313033   -0.9734273586
H        5.6983448658   -1.1841577522   -0.2117971672
H        5.9074694447    0.3665871266    0.6477449161
20   
torsion grid (75,)
C       -0.8317495004   -0.6340539533    1.4815040833
C        0.2635373473   -1.3135880103    0.8698256422
C       -0.6552820030    0.7289370095    1.5056992614
C        1.2381035111   -0.4399252512    0.4516215916
C        4.0462106336   -1.1521430813    1.8554323372
C        5.1756280143    0.0000952307   -0.0039114716
N        3.8948906215   -0.3186807877    0.6532440251
O        2.7108323493   -2.3754009809   -0.4736823703
O        2.8325676405   -0.1153333158   -1.6390411497
S        0.8399695381    1.2160014724    0.7863146361
S        2.7097390322   -0.9081839784   -0.4145801711
H       -1.7085736964   -1.1308475510    1.8826847677
H        0.3456739903   -2.3859444928    0.7317651389
H       -1.3237087149    1.4800919686    1.9085761333
H        3.0721121883   -1.3041719791    2.3260700017
H        4.6822981250   -0.6090228129    2.5592229832
H        4.4940787077   -2.1293384145    1.6349236695
H        4.9895710585    0.6122318123   -0.8854407304
H        5.7359392818   -0.8993213397   -0.2941369190
H        5.7718288687    0.5754844767    0.7092782454
20   
torsion grid (90,)
C       -0.8318069796   -0.5051408548    1.5083950488
C        0.2648419861   -1.2527145490    0.9832384152
C       -0.6837219654    0.8472278227    1.3154643933
C        1.2106307629   -0.4389296995    0.4086039611
C        4.1977455339   -1.3899517215    1.7951504590
C        5.0742233623    0.1532355648    0.0918882518
N        3.8781035434   -0.4258104704    0.7310137072
O        2.6562892075   -2.4670401754   -0.3540920567
O        2.8867510423   -0.2522817110   -1.6067476448
S        0.7849045587    1.2417467375    0.4906613228
S        2.7025356921   -1.0012513270   -0.3620378165
H       -1.6912889960   -0.9485959773    1.9995817758
H        0.3625607442   -2.3323583045    1.0072020835
H       -1.3627324756    1.6401821193    1.6042531404
H        3.2797950133   -1.7231953337    2.2843517660
H        4.8098187148   -0.8719881937    2.5381987249
H        4.7390646472   -2.2668940616    1.4199268376
H        4.7750496341    0.8563857370   -0.6835657576
H        5.7309076690   -0.6097486958   -0.3480391319
H        5.6245812192    0.6918514556    0.8681415358
20   
torsion grid (105,)
C       -0.8183021708   -0.3681794949    1.5747798113
C        0.2546927694   -1.1985238181    1.1299693232
C       -0.6806037675    0.9348574362    1.1621973213
C        1.1726378289   -0.4949741964    0.3903724304
C        4.3830133172   -1.6513269671    1.6996901340
C        4.8577737220    0.2997183362    0.2540687160
N        3.8512998075   -0.6299100777    0.7875190064
O        2.5517962138   -2.6169534599   -0.1988992083
O        2.8972847645   -0.4774343056   -1.5732669572
S        0.7472375820    1.1794742058    0.2149241653
S        2.6648496914   -1.1598919872   -0.2984297897
H       -1.6571210395   -0.7225700498    2.1643707714
H        0.3509146703   -2.2610194432    1.3234424700
H       -1.3501296758    1.7666331996    1.3436487631
H        3.5688972556   -2.2419679047    2.1201107757
H        4.8926218511   -1.1325223069    2.5164026671
H        5.0891326075   -2.3289858581    1.2031736189
H        4.3815649274    1.0497939856   -0.3757369551
H        5.6313690705   -0.2125916210   -0.3329807118
H        5.3255835218    0.8011148919    1.1060861163
20   
torsion grid (120,)
C       -0.7715828664   -0.1725215023    1.5735595869
C        0.2848635646   -1.0697456598    1.2342814547
C       -0.6520681351    1.0442496901    0.9459125249
C        1.1739924061   -0.5036524487    0.3547554385
C        4.5546761395   -1.8229906361    1.5587553464
C        4.6203734585    0.3945313769    0.4326416031
N        3.8334956297   -0.7816466528    0.8179648256
O        2.4675061795   -2.7174928648   -0.0979983859
O        2.9183707248   -0.6642628070   -1.5736662796
S        0.7362386072    1.1192900720   -0.0837161205
S        2.6445878294   -1.2742762343   -0.2700303623
H       -1.5879517200   -0.4210254701    2.2434333869
H        0.3875043851   -2.0857256925    1.5988397158
H       -1.3160058844    1.8973234075    1.0121859221
H        3.8721497812   -2.6263757617    1.8314605354
H        4.9518734213   -1.3693764119    2.4716371855
H        5.3843676856   -2.2474279710    0.9775084209
H        3.9696936621    1.1710502179    0.0281827135
H        5.3884378415    0.1577020586   -0.3141668638
H        5.0987925893    0.7856234195    1.3349896512
20   
torsion grid (135,)
C       -0.7375350226   -0.0204773694    1.5824489650
C        0.3342448420   -0.9303643566    1.3463062435
C       -0.6863622104    1.0792156246    0.7579848695
C        1.1671382754   -0.4912368824    0.3466798873
C        4.6645065521   -1.9311577865    1.3969142224
C        4.4355578466    0.4168279994    0.6179581447
N        3.7858195994   -0.8701780266    0.8863331295
O        2.4021246205   -2.7652253583   -0.0629111904
O        2.9246641870   -0.7492672200   -1.5545818157
S        0.6545559612    1.0239657667   -0.3309556617
S        2.6152902241   -1.3277662129   -0.2428403111
H       -1.5156406226   -0.1768672908    2.3220577060
H        0.4863123434   -1.8684759363    1.8685674204
H       -1.3754821485    1.9137560956    0.7171658223
H        4.0826776058   -2.8324843480    1.5827202265
H        5.0900500261   -1.5801257447    2.3415006822
H        5.4820379022   -2.1692865736    0.7024827528
H        3.6862022487    1.1760176202    0.3846690007
H        5.1515779155    0.3612097971   -0.2114638861
H        4.9553022673    0.7252776644    1.5291907448
20   
torsion grid (150,)
C       -0.6504208859    0.0842272475    1.5709058690
C        0.4632263578   -0.7964164862    1.4523414183
C       -0.7215935115    0.9834032381    0.5314721837
C        1.2056396799   -0.5339445366    0.3267200903
C        4.7808162740   -2.0266845868    1.2589610415
C        4.2817737367    0.3622083545    0.8469186033
N        3.7596101771   -1.0031938942    0.9821098919
O        2.3992799226   -2.8608849820   -0.0647253369
O        3.0055130085   -0.8577093997   -1.5223634274
S        0.5557578775    0.7747600676   -0.6119139832
S        2.6378832388   -1.4246651591   -0.2182554152
H       -1.3682518257    0.0515334993    2.3836462074
H        0.7122835328   -1.5873492147    2.1511889564
H       -1.4638304694    1.7555540333    0.3701294758
H        4.3030405539   -3.0009233540    1.3522779659
H        5.2512302554   -1.7678864395    2.2116148766
H        5.5542412063   -2.0732433335    0.4798251282
H        3.4549355671    1.0682886656    0.7420421043
H        4.9559854669    0.4720742749   -0.0119911291
H        4.8194650544    0.6069282501    1.7668273283
20   
torsion grid (165,)
C       -0.6326777962    0.1742002218    1.5322948454
C        0.4562800814   -0.7426298720    1.4730813707
C       -0.6723929163    1.0110962298    0.4404043470
C        1.2117726004   -0.5648689649    0.3392790742
C        4.8859898742   -2.0127936479    1.1189764710
C        4.1418307913    0.3215921885    0.9874747593
N        3.7345070050   -1.0899695481    1.0708023155
O        2.3410794254   -2.9494742796    0.0568034429
O        3.0273971638   -1.0269681171   -1.4639739769
S        0.6052801594    0.7032588229   -0.6799045233
S        2.6175786245   -1.5265607499   -0.1432759364
H       -1.3558597972    0.2094947436    2.3401321453
H        0.6807920488   -1.4980945192    2.2179747295
H       -1.3935199475    1.7907656384    0.2275155190
H        4.5261423222   -3.0405773964    1.1598212045
H        5.4385277031   -1.7961251717    2.0369568954
H        5.5581990761   -1.8908094318    0.2586827232
H        3.2608846751    0.9660255294    1.0113513409
H        4.7246406575    0.5388746373    0.0827765135
H        4.7466168421    0.5433651399    1.8705885916
20   
torsion grid (180,)
C       -0.6028916599    0.3008175590    1.3223162010
C        0.3949617568   -0.7083441048    1.4611119379
C       -0.4783473850    1.0038114440    0.1470508167
C        1.2489915863   -0.7332763684    0.3848664844
C        5.1695462812   -1.6560319610    0.0438940220
C        4.0019443037   -0.0451227079    1.4413483174
N        3.9358482391   -0.8553895292    0.2101020856
O        2.5392698854   -2.7684861906    1.3524377510
O        2.5346324357   -2.4678839432   -1.1713966279
S        0.8442010719    0.4505407312   -0.8189068934
S        2.5691701071   -1.8912076324    0.1722370749
H       -1.3783504848    0.4943467933    2.0556450056
H        0.4946938383   -1.3899621674    2.2982785513
H       -1.0975481436    1.8174567866   -0.2106273681
H        5.0833984485   -2.2769504713   -0.8487622249
H        5.3751374327   -2.2890412656    0.9170107496
H        5.9970031913   -0.9566716978   -0.0983446054
H        3.1087761996    0.5735510643    1.5356350966
H        4.8662187447    0.6172366486    1.3473909509
H        4.1169226792   -0.6597890582    2.3446326916
