65
-1 1 C29F3H27NO4S
C                     4.336409567294     2.514886991282     2.103390134926
C                     3.796580908391     1.621446271352     0.976924097693
C                     2.258651405883     1.796529869733     0.825897810786
N                     1.732159774849     0.408563129651     0.598289865801
C                     2.709191946404    -0.523199000469     1.033569861626
C                     3.920286892475     0.141387075302     1.284883654456
C                     5.040296168680    -0.573114519300     1.678083176858
C                     4.973471109589    -1.972274431617     1.846489416108
C                     3.749327743608    -2.614805978196     1.586600126658
C                     2.615383104154    -1.913068418379     1.170504233498
C                     6.163168870398    -2.741886324265     2.261984555547
C                     6.051901815788    -3.881114009694     3.082094188960
C                     7.174633539405    -4.612131140373     3.468687521273
C                     8.446582853975    -4.214951236953     3.045734676820
C                     8.582458797341    -3.081250209519     2.232589359465
C                     7.456909813630    -2.360790926209     1.846982614560
C                     9.675316112577    -4.968913237480     3.452680910796
F                     9.395247422797    -6.088917280123     4.166488902244
F                    10.419313679769    -5.364065609002     2.379760140592
F                    10.513741156638    -4.216674095073     4.224487618843
S                     0.096114589068     0.152752134879     0.981180359959
O                    -0.210741273370     0.599862707473     2.351151317720
O                    -0.207250894573    -1.240964623607     0.625426861638
C                    -0.706205873974     1.274199524239    -0.152149841253
C                    -1.842275001176     1.948992973311     0.303794270644
C                    -2.538891596706     2.740475463737    -0.604174215840
C                    -2.102020005167     2.896435804249    -1.929746475361
C                    -0.922467931472     2.254093279770    -2.352985276595
C                    -0.248194240256     1.407084753806    -1.458922244265
C                    -0.319775110191     2.510622722565    -3.724498733008
H                     0.138206587971     1.580511053831    -4.074863080032
C                    -1.397479901676     2.958119859112    -4.725431182699
C                    -2.225708404693     4.124583639395    -4.174352110462
C                    -2.951954034423     3.710815337488    -2.889281989832
C                     0.833492466861     3.537668607074    -3.612246667938
C                     1.960177805714     3.059140820525    -2.654098560861
O                     2.266052033843     3.846645406481    -1.713334930592
O                     2.429350141353     1.908642168519    -2.898036115510
C                     4.520710263203     1.934413384434    -0.348726527682
H                     4.134001183959     3.567254576833     1.876077783039
H                     3.872713617814     2.270068695251     3.065384095590
H                     5.421763615359     2.400678833236     2.206400278765
H                     1.822919820810     2.191482275770     1.750809874208
H                     2.012663469464     2.444758654581    -0.017011057617
H                     5.966281488154    -0.043357335699     1.887934649332
H                     3.685600540826    -3.696748325532     1.669134874894
H                     1.689337728358    -2.429542206222     0.954664813962
H                     5.073259326230    -4.182864989542     3.443103501796
H                     7.062279702974    -5.483169656391     4.106483646206
H                     9.566691208029    -2.773686292097     1.889487414021
H                     7.573930109334    -1.506372067175     1.187426643348
H                    -2.158878080289     1.851150340186     1.337057701622
H                    -3.438827644099     3.259426308936    -0.277838350715
H                     0.664661086641     0.915628051436    -1.783888048425
H                    -0.919102390871     3.244479809747    -5.669655706011
H                    -2.068981826164     2.116132484029    -4.948472407733
H                    -1.566051932146     4.973950104925    -3.969246246295
H                    -2.959181557934     4.464586955930    -4.916045640079
H                    -3.825428458978     3.098138619733    -3.156929800372
H                    -3.349925190068     4.591993619127    -2.371698374501
H                     0.462000280484     4.504288444410    -3.260864564968
H                     1.260414606070     3.673904052270    -4.615058194153
H                     4.092827429227     1.369591040275    -1.180707082334
H                     5.589375702493     1.701834200562    -0.251083653662
H                     4.388695556607     2.987249090729    -0.611208531459
