17   
torsion grid (-165,)
C       -0.5273156415    0.9093000382   -0.3063757825
C       -0.5749677962    0.9653405877   -1.8393552435
C        0.8150192887    0.9383801761   -2.4863260258
C        0.7801500640    1.0192126600   -4.0169326882
C        2.1743016493    0.9760128241   -4.6528859829
H       -1.5069493892    0.6655903084    0.1187595651
H       -0.1895312775    1.8589499013    0.1228569749
H        0.1677361602    0.1306249695    0.0306788768
H       -1.1534559265    0.1114519958   -2.2164380690
H       -1.1159281211    1.8644371743   -2.1619855968
H        1.3337838748    0.0183051662   -2.1830859698
H        1.4177757304    1.7696982446   -2.0934288635
H        0.1728794775    0.1922006977   -4.4084953084
H        0.2681717701    1.9425715888   -4.3186837289
H        2.1193489685    1.0356991968   -5.7453870599
H        2.6970615453    0.0474037922   -4.3953740010
H        2.7934010803    1.8107307423   -4.3038296535
17   
torsion grid (-150,)
C       -0.4713831271    0.9849843134   -0.2028680756
C       -0.5449060360    1.0342989928   -1.7397946040
C        0.8311690473    0.9658816956   -2.4138760889
C        0.7689626538    1.0486896194   -3.9433224519
C        2.1480220537    0.9578973491   -4.6066378901
H       -1.3620020248    0.5197408202    0.2322925351
H       -0.3461771663    1.9801819473    0.2358159425
H        0.3817772815    0.3768545916    0.1217975406
H       -1.1467463087    0.1912866721   -2.1036446234
H       -1.0722833286    1.9407643066   -2.0625762406
H        1.3254805748    0.0295144907   -2.1202764553
H        1.4678121980    1.7772557224   -2.0326902629
H        0.1259868021    0.2431756955   -4.3226483712
H        0.2831050108    1.9891818122   -4.2351711755
H        2.0736528105    1.0205399811   -5.6978224924
H        2.6432894924    0.0114860239   -4.3598234451
H        2.8023845338    1.7703489876   -4.2696055225
17   
torsion grid (-135,)
C       -0.4716585579    0.9915424184   -0.1941203195
C       -0.5421715216    1.0667020160   -1.7356336027
C        0.8303597000    0.9591449288   -2.4126592535
C        0.7691351227    1.0586068545   -3.9409438327
C        2.1445691322    0.9357971212   -4.6066692638
H       -1.2379287155    0.3280862732    0.2193013642
H       -0.5824787760    1.9745749097    0.2739215680
H        0.4937959829    0.5869723400    0.1317544383
H       -1.1770212774    0.2571772310   -2.1172938599
H       -1.0302087134    1.9984654158   -2.0466582846
H        1.2949640755    0.0046853170   -2.1286130527
H        1.4922740732    1.7462121948   -2.0239762751
H        0.1034974842    0.2752416613   -4.3274929597
H        0.3095030073    2.0152025166   -4.2229441555
H        2.0709284360    1.0102291819   -5.6971590356
H        2.6137833712   -0.0260724434   -4.3689035851
H        2.8213742040    1.7268785271   -4.2631934895
17   
torsion grid (-120,)
C       -0.4780633367    0.9888351693   -0.1973338405
C       -0.5419923483    1.1010917301   -1.7395469764
C        0.8264170791    0.9522352155   -2.4174732835
C        0.7686085290    1.0622918680   -3.9450639665
C        2.1414244638    0.9125955406   -4.6106899636
H       -1.0865178486    0.1603490591    0.1788066497
H       -0.8314468208    1.9002320156    0.2951596261
H        0.5478274329    0.8152317296    0.1458736639
H       -1.2194952130    0.3391355798   -2.1438110405
H       -0.9754168325    2.0662854731   -2.0285132604
H        1.2634346741   -0.0171749403   -2.1392897020
H        1.5100746345    1.7173933808   -2.0234598302
H        0.0857696589    0.2966271015   -4.3368787817
H        0.3308498047    2.0308185732   -4.2214020189
H        2.0702654041    0.9953343966   -5.7007436530
H        2.5886463521   -0.0610323535   -4.3785078503
H        2.8356385866    1.6861285378   -4.2620139428
17   
torsion grid (-105,)
C       -0.4715084828    0.9030195640   -0.1295552029
C       -0.5448715219    1.0728517060   -1.6636370806
C        0.8113504104    0.8987025995   -2.3596153677
C        0.7408504044    1.0425637177   -3.8839554202
C        2.1039419182    0.8809097758   -4.5665522514
H       -0.8843152225   -0.0579092170    0.1943946479
H       -1.0465895482    1.6775862657    0.3888996052
H        0.5595772632    0.9673448118    0.2341528046
H       -1.2657656189    0.3633357863   -2.0876187680
H       -0.9297730111    2.0707714965   -1.9084875389
H        1.2278036240   -0.0868975040   -2.1069848786
H        1.5172133185    1.6383629324   -1.9568238726
H        0.0394748966    0.2989703169   -4.2852369136
H        0.3194276595    2.0252084111   -4.1348965690
H        2.0238013497    0.9883419900   -5.6538287971
H        2.5344616747   -0.1058419249   -4.3596077293
H        2.8163957533    1.6333609420   -4.2086193058
17   
torsion grid (-90,)
C       -0.4390369453    0.8255234883   -0.0309160522
C       -0.5333283392    1.0437488755   -1.5521789780
C        0.8039378474    0.8443259895   -2.2767138715
C        0.7115187424    1.0292840187   -3.7956507676
C        2.0576860303    0.8479479605   -4.5062771024
H       -0.6309208622   -0.2185126457    0.2394958296
H       -1.1870001488    1.4232110787    0.5021097575
H        0.5451142513    1.1090183839    0.3574219995
H       -1.2915324693    0.3760419243   -1.9798408363
H       -0.8825031500    2.0647044463   -1.7547457915
H        1.1948299613   -0.1595832741   -2.0569980611
H        1.5390275295    1.5517249406   -1.8685266163
H       -0.0170355063    0.3158746274   -4.2031541643
H        0.3135124272    2.0293164205   -4.0140304413
H        1.9618784760    0.9848174206   -5.5889740219
H        2.4643733074   -0.1549919510   -4.3314266232
H        2.7966541324    1.5715673343   -4.1426715909
17   
torsion grid (-75,)
C       -0.4496617202    0.9260149077   -0.1108748694
C       -0.5253776962    1.1357311437   -1.6294429587
C        0.8105040083    0.8863941405   -2.3399632392
C        0.7393760535    1.0691078718   -3.8605103398
C        2.0839976524    0.8329582648   -4.5577863506
H       -0.4143841137   -0.1396358659    0.1427394667
H       -1.3304189153    1.3426293336    0.3908074322
H        0.4358519518    1.4099460141    0.3162478866
H       -1.2988582308    0.4833135350   -2.0547846958
H       -0.8464429283    2.1646767483   -1.8397963735
H        1.1613355208   -0.1306207650   -2.1133680995
H        1.5682574966    1.5671304469   -1.9276085936
H       -0.0124644645    0.3828523389   -4.2723216442
H        0.3825519936    2.0829261680   -4.0861269489
H        2.0037089311    0.9695543436   -5.6417797659
H        2.4496670937   -0.1844218710   -4.3758496764
H        2.8471737421    1.5285395041   -4.1894986384
17   
torsion grid (-60,)
C       -0.4534482045    0.9224425067   -0.1147141512
C       -0.5263343634    1.1422273307   -1.6300724780
C        0.8043307835    0.8703242929   -2.3415226112
C        0.7436305606    1.0865922394   -3.8581976659
C        2.0794482815    0.8120046146   -4.5582832162
H       -0.1745836427   -0.1112043399    0.1212938273
H       -1.4158837176    1.1262761007    0.3672874928
H        0.2951056033    1.5791191647    0.3438993974
H       -1.3035772281    0.4947710107   -2.0573530470
H       -0.8418577548    2.1736997982   -1.8359866112
H        1.1215314906   -0.1616409107   -2.1349938558
H        1.5828049774    1.5179099707   -1.9139500017
H       -0.0336590609    0.4387111698   -4.2847577404
H        0.4273216524    2.1178906405   -4.0637645936
H        2.0070783193    0.9742135539   -5.6392980164
H        2.4042084876   -0.2226250433   -4.3971412794
H        2.8686727872    1.4690090191   -4.1744018949
17   
torsion grid (-45,)
C       -0.4540727927    0.9314190116   -0.1134993887
C       -0.5240362124    1.1575956370   -1.6298563347
C        0.7995964588    0.8583017432   -2.3436884877
C        0.7501520998    1.1067711864   -3.8557520579
C        2.0739285863    0.7891060593   -4.5604926001
H        0.0510077779   -0.0129527527    0.1209015845
H       -1.4485208302    0.9151982241    0.3443333051
H        0.1235516890    1.7257357842    0.3741775098
H       -1.3058642297    0.5169607422   -2.0594397463
H       -0.8311125648    2.1909807497   -1.8366673621
H        1.0792430117   -0.1878592259   -2.1567159339
H        1.5998053307    1.4695558619   -1.9022913562
H       -0.0536142176    0.5010656171   -4.2951776336
H        0.4784095299    2.1543841807   -4.0413001243
H        2.0100755129    0.9758957548   -5.6380682362
H        2.3537219145   -0.2615558500   -4.4200303574
H        2.8901065537    1.4037612211   -4.1630865114
17   
torsion grid (-30,)
C       -0.3724620658    0.9802269497    0.0126646020
C       -0.4737845036    1.2062198290   -1.5067872948
C        0.8244295351    0.8758704647   -2.2537287514
C        0.7452060545    1.1322241619   -3.7630150697
C        2.0413695590    0.7789320634   -4.5013708437
H        0.3356543003    0.1768909919    0.2462183996
H       -1.3398086470    0.7349991448    0.4617498020
H        0.0075244411    1.8757251383    0.5181724688
H       -1.2744918473    0.5781375917   -1.9190826669
H       -0.7688647283    2.2425962250   -1.7130838960
H        1.0787682051   -0.1783233007   -2.0768673411
H        1.6518705048    1.4628481159   -1.8296729737
H       -0.0866062461    0.5521271505   -4.1845510201
H        0.4997711752    2.1880902007   -3.9381434967
H        1.9567468099    0.9727166417   -5.5762758590
H        2.2931932273   -0.2802157575   -4.3721759914
H        2.8848932608    1.3672723090   -4.1216542422
17   
torsion grid (-15,)
C       -0.3693417999    0.9882074298    0.0226818525
C       -0.4613108619    1.2382789976   -1.4991924917
C        0.8233650415    0.8710125423   -2.2531567009
C        0.7478986379    1.1409316429   -3.7600549073
C        2.0322387592    0.7577746769   -4.5041965278
H        0.4882343186    0.3521392940    0.2689929882
H       -1.2704514773    0.5127935147    0.4216387759
H       -0.2237811227    1.9238294365    0.5735693555
H       -1.2862221913    0.6514387765   -1.9227062444
H       -0.7121366827    2.2878774134   -1.6948410220
H        1.0449745078   -0.1919772273   -2.0845751154
H        1.6695068009    1.4286750839   -1.8267560082
H       -0.1005309736    0.5872990757   -4.1840724875
H        0.5312284261    2.2045205634   -3.9265000049
H        1.9501979242    0.9609349386   -5.5775672353
H        2.2557274416   -0.3086069411   -4.3826674400
H        2.8922472831    1.3206471151   -4.1228653731
17   
torsion grid (0,)
C       -0.3765490341    0.9976225961    0.0194841278
C       -0.4526846404    1.2763800755   -1.5009158642
C        0.8179167327    0.8691031860   -2.2585237718
C        0.7480949238    1.1446491932   -3.7645812512
C        2.0231972686    0.7345489252   -4.5102638371
H        0.5857523105    0.5512747166    0.2936469451
H       -1.1572041307    0.3046623046    0.3489179563
H       -0.4855190644    1.9128238938    0.6098542694
H       -1.3079794073    0.7465931251   -1.9376639579
H       -0.6422168823    2.3420228707   -1.6784541876
H        1.0098308723   -0.2004697441   -2.0932739839
H        1.6793636523    1.4014122994   -1.8311493717
H       -0.1127810988    0.6117378493   -4.1899382515
H        0.5555794877    2.2134346655   -3.9278883111
H        1.9454215478    0.9424460709   -5.5830449067
H        2.2225215080   -0.3369334558   -4.3916895309
H        2.8958568410    1.2767921667   -4.1277709651
17   
torsion grid (15,)
C       -0.3726884558    0.7887243598    0.0157661405
C       -0.4704632812    0.6388727595   -1.5188608920
C        0.8254111254    1.0148359394   -2.2489979417
C        0.7435228036    0.8437398366   -3.7699562631
C        2.0395256668    1.2349392153   -4.4892789984
H        0.5032390274    1.3819243989    0.3013416797
H       -0.2557232602   -0.1839900586    0.5058674296
H       -1.2596220264    1.2644910636    0.4449264152
H       -0.7523160068   -0.3881842577   -1.7807038773
H       -1.2770281436    1.2758567326   -1.9034757970
H        1.6540653100    0.4061394868   -1.8596628526
H        1.0784893907    2.0578465329   -2.0132903726
H        0.4953615317   -0.2001519799   -4.0035739745
H       -0.0875411583    1.4483329194   -4.1571676534
H        1.9525977469    1.1030429994   -5.5733345572
H        2.8819329145    0.6234998417   -4.1452652300
H        2.2946336524    2.2842716412   -4.3003141821
17   
torsion grid (30,)
C       -0.3755584950    0.7974155921    0.0062796937
C       -0.4819658716    0.6717084716   -1.5243894982
C        0.8263306225    1.0099943678   -2.2498787812
C        0.7410947774    0.8526944342   -3.7723539001
C        2.0480176583    1.2133817467   -4.4878130180
H        0.3559853032    1.5627461652    0.2898947917
H       -0.0230257019   -0.1393894073    0.4534506610
H       -1.3356275035    1.0423543950    0.4708719827
H       -0.8076470936   -0.3401594498   -1.7959804218
H       -1.2631176375    1.3483954709   -1.8952042089
H        1.6354192507    0.3727631109   -1.8647340010
H        1.1118521562    2.0427259770   -2.0064954231
H        0.4644218520   -0.1820816941   -4.0141218781
H       -0.0725715843    1.4830319929   -4.1554183563
H        1.9587908272    1.0910125909   -5.5728008685
H        2.8731886849    0.5771331324   -4.1470173901
H        2.3312233802    2.2541640567   -4.2916822322
17   
torsion grid (45,)
C       -0.4555495181    0.8565767662   -0.1164718543
C       -0.5306173029    0.7295512508   -1.6440903483
C        0.8021254109    1.0339918748   -2.3385323244
C        0.7468973376    0.8838425468   -3.8633021959
C        2.0803222737    1.2060273520   -4.5475016996
H        0.0772597378    1.7686061993    0.1771351655
H        0.0975732891    0.0159337971    0.3191802420
H       -1.4495579824    0.8733282420    0.3422955542
H       -0.8681985401   -0.2789421684   -1.9159941872
H       -1.2925041403    1.4192958208   -2.0313772722
H        1.5832497634    0.3722544826   -1.9376010029
H        1.1126918632    2.0573114480   -2.0855906255
H        0.4441873019   -0.1412525278   -4.1149209533
H       -0.0379515221    1.5400250816   -4.2626157195
H        2.0120702937    1.0901843051   -5.6347270034
H        2.8773546064    0.5432209667   -4.1907017306
H        2.3912182825    2.2367925729   -4.3406898581
17   
torsion grid (60,)
C       -0.4546559162    0.8655895797   -0.1171130941
C       -0.5324550297    0.7449638024   -1.6433258376
C        0.8064960995    1.0217202219   -2.3371398688
C        0.7409838781    0.9043223789   -3.8644530427
C        2.0851533702    1.1828795960   -4.5467590498
H       -0.1452976541    1.8733287782    0.1839686781
H        0.2734618091    0.1589899723    0.2981519314
H       -1.4232639519    0.6603362797    0.3517423638
H       -0.8784229696   -0.2614264613   -1.9142057389
H       -1.2895578379    1.4412288600   -2.0278842280
H        1.5648255687    0.3252707688   -1.9522993839
H        1.1541547127    2.0285127914   -2.0656167273
H        0.3942356471   -0.1018929029   -4.1349747741
H       -0.0161537385    1.6009666939   -4.2482653897
H        2.0091257409    1.0920300309   -5.6358450767
H        2.8539936870    0.4794940652   -4.2061296166
H        2.4404960902    2.1949926670   -4.3203673582
17   
torsion grid (75,)
C       -0.4509821082    0.8616666121   -0.1135134042
C       -0.5313053311    0.7513737361   -1.6422862819
C        0.8121850374    1.0054059375   -2.3366125837
C        0.7372561761    0.9220374133   -3.8656457051
C        2.0890745685    1.1618104840   -4.5476013535
H       -0.3841656601    1.9074866569    0.2073796679
H        0.4192272821    0.3252981838    0.2812044618
H       -1.3443240015    0.4404658581    0.3613720353
H       -0.8827318606   -0.2520479656   -1.9174313213
H       -1.2845017715    1.4523517079   -2.0245969800
H        1.5488296230    0.2774757604   -1.9690516574
H        1.1929907751    1.9950037133   -2.0460430375
H        0.3505546902   -0.0642548325   -4.1550302795
H        0.0066863677    1.6552621794   -4.2323180772
H        2.0058998795    1.0969368245   -5.6380231930
H        2.8307427584    0.4217142315   -4.2249675131
H        2.4847705493    2.1541712298   -4.3015887659
17   
torsion grid (90,)
C       -0.4374537481    0.9564794093   -0.0273599761
C       -0.5365886082    0.8384308498   -1.5593491323
C        0.8068132013    1.0435253270   -2.2708327230
C        0.7105406787    0.9584586919   -3.7983848252
C        2.0622843662    1.1443613259   -4.4971467911
H       -0.5983619778    1.9864538412    0.3091138271
H        0.5373747917    0.6195713152    0.3413290388
H       -1.2035044876    0.3486903274    0.4671645718
H       -0.9158808887   -0.1566752643   -1.8261970786
H       -1.2740543859    1.5543533571   -1.9430155923
H        1.5200102812    0.2899386533   -1.9091091683
H        1.2272769172    2.0192894395   -1.9879898255
H        0.2830811845   -0.0133110593   -4.0796418120
H        0.0040543031    1.7178016621   -4.1590488923
H        1.9635932685    1.0796002763   -5.5862799715
H        2.7789223511    0.3773168283   -4.1809496845
H        2.4985542108    2.1215427505   -4.2591534561
17   
torsion grid (105,)
C       -0.4721121315    0.8864456982   -0.1306728749
C       -0.5488761655    0.8168555353   -1.6723916629
C        0.8126842568    0.9943529499   -2.3570079918
C        0.7395473955    0.9499640572   -3.8873541935
C        2.1075869810    1.1139404115   -4.5594169778
H       -0.8563824470    1.8367118943    0.2541225947
H        0.5562036581    0.7683320693    0.2273423685
H       -1.0706223320    0.0979795892    0.3379143260
H       -0.9631469936   -0.1515147314   -1.9799360294
H       -1.2478059078    1.5731332035   -2.0497547942
H        1.4957119039    0.2098030647   -2.0026979783
H        1.2581164848    1.9489963582   -2.0425097566
H        0.2892343623   -0.0016903230   -4.1999742659
H        0.0611210491    1.7382071688   -4.2399107031
H        2.0254351248    1.0783632096   -5.6512593953
H        2.7968684705    0.3192892562   -4.2506940492
H        2.5671626234    2.0722198627   -4.2904504435
17   
torsion grid (120,)
C       -0.4811542614    0.8053543907   -0.2037678683
C       -0.5467609061    0.7934313777   -1.7499448646
C        0.8262067539    0.9441856693   -2.4181660988
C        0.7667687504    0.9333445894   -3.9496155379
C        2.1441532076    1.0840221504   -4.6055110720
H       -1.0649960866    1.6260286807    0.2248460190
H        0.5490964212    0.9260413569    0.1489350329
H       -0.8621239627   -0.1245732038    0.2300181478
H       -1.0085081707   -0.1380370696   -2.0993914047
H       -1.2007738046    1.5994677976   -2.1043299749
H        1.4862870382    0.1354233107   -2.0742202860
H        1.2916832784    1.8804389131   -2.0792147743
H        0.3005758882   -0.0021225602   -4.2866683676
H        0.1075198451    1.7424480022   -4.2913356558
H        2.0717194858    1.0729851351   -5.6985608639
H        2.8145834320    0.2694755463   -4.3073523473
H        2.6200045463    2.0271053129   -4.3122077282
17   
torsion grid (135,)
C       -0.4748359975    0.8022579181   -0.2007382066
C       -0.5459167284    0.8274926542   -1.7438503172
C        0.8299364131    0.9368692020   -2.4138049547
C        0.7674005125    0.9367423646   -3.9452696336
C        2.1465987292    1.0605280593   -4.6029782385
H       -1.2213912824    1.4606524206    0.2547103980
H        0.5019219325    1.1562481796    0.1494170143
H       -0.6154642482   -0.2048181158    0.2038836438
H       -1.0612307893   -0.0675930130   -2.1131371536
H       -1.1558992500    1.6782676830   -2.0726850914
H        1.4676346113    0.1072407216   -2.0765547460
H        1.3225346765    1.8570118360   -2.0699776169
H        0.2797063893    0.0141902173   -4.2871951256
H        0.1258677500    1.7626532344   -4.2806225985
H        2.0719326258    1.0578787834   -5.6959325176
H        2.7991094780    0.2293276427   -4.3111114885
H        2.6440754126    1.9908699459   -4.3048698552
17   
torsion grid (150,)
C       -0.4743566654    0.8093465152   -0.2090510050
C       -0.5476779976    0.8601536838   -1.7459386184
C        0.8305447662    0.9302134690   -2.4154481742
C        0.7675265883    0.9468037638   -3.9470114985
C        2.1493912222    1.0383675675   -4.6043558847
H       -1.3511557549    1.2723376481    0.2555788099
H        0.3962284914    1.3698390004    0.1529459805
H       -0.3793805616   -0.2150440020    0.1653046532
H       -1.1015323079   -0.0077832534   -2.1253130219
H       -1.1236987136    1.7422034457   -2.0548992779
H        1.4422769137    0.0775787596   -2.0872063322
H        1.3522736060    1.8308199830   -2.0632622040
H        0.2540954655    0.0417338904   -4.2977190995
H        0.1493130133    1.7936819537   -4.2737651393
H        2.0743487368    1.0475604146   -5.6972523965
H        2.7788194540    0.1869127405   -4.3202725258
H        2.6724586977    1.9519197755   -4.2982115337
17   
torsion grid (165,)
C       -0.5275558116    0.8926995288   -0.3069088049
C       -0.5753998639    0.9358522765   -1.8402996264
C        0.8153880934    0.9624568525   -2.4855617029
C        0.7795780610    0.9804138880   -4.0181743674
C        2.1750021109    1.0224358000   -4.6514101188
H       -1.4998838666    1.1379737732    0.1338128320
H        0.1901072797    1.6272339367    0.0783917726
H       -0.2186793001   -0.0920181929    0.0606505591
H       -1.1426510400    0.0756777026   -2.2190197225
H       -1.1277809888    1.8289106637   -2.1616835248
H        1.3926658341    0.0901533825   -2.1470195111
H        1.3611183374    1.8454260173   -2.1247948328
H        0.2405677236    0.0938478907   -4.3776687040
H        0.1976231650    1.8484466047   -4.3556579514
H        2.1193265440    1.0343800177   -5.7454387240
H        2.7685129166    0.1489603730   -4.3570232012
H        2.7250718719    1.9166245336   -4.3355691593
17   
torsion grid (180,)
C       -0.5257973404    0.9084550508   -0.3072395629
C       -0.5750068360    0.9561114252   -1.8386552668
C        0.8152959360    0.9533572360   -2.4850379328
C        0.7788302003    1.0007988355   -4.0170886184
C        2.1742120411    0.9975348559   -4.6517745514
H       -1.5315009346    0.9116003761    0.1271482858
H        0.0151091056    1.7719384493    0.0973739539
H       -0.0137505198    0.0046770029    0.0433131407
H       -1.1495735341    0.0987416678   -2.2137204208
H       -1.1211304650    1.8529637381   -2.1600415347
H        1.3628598133    0.0562645090   -2.1631466787
H        1.3912751586    1.8109268585   -2.1094886076
H        0.2038805234    0.1434317324   -4.3915724857
H        0.2323886003    1.8976536622   -4.3379266101
H        2.1180632687    1.0318207960   -5.7453073642
H        2.7318960443    0.0953340893   -4.3744350933
H        2.7605648257    1.8626017771   -4.3204977405
