18   
torsion grid (-165,)
C       -1.8514090466    2.0650650341   -0.4650025922
C       -1.4562342340    1.0896071257   -1.5880898852
C       -0.2047993623    1.6388365025   -2.3015341102
C       -1.2618031875   -0.3023829337   -1.0039343199
C       -0.6669054933   -1.3791547908   -1.5407936341
C       -0.1435426534   -1.5588429153   -2.9447660032
H       -2.7590570422    1.7353599908    0.0529593993
H       -2.0361059859    3.0693774528   -0.8607861717
H       -1.0490020252    2.1385398105    0.2784753519
H       -2.2793139507    1.0570738889   -2.3172880668
H        0.0754410526    1.0551224864   -3.1794605894
H        0.6509065341    1.6435978855   -1.6169619851
H       -0.3795930712    2.6694635417   -2.6309390712
H       -1.6071596197   -0.4117321025    0.0250860017
H       -0.5852973568   -2.2590158677   -0.9021833848
H        0.9347149429   -1.3622294194   -3.0043631264
H       -0.6428494994   -0.9043141462   -3.6630985890
H       -0.2973336005   -2.5919774827   -3.2744864982
18   
torsion grid (-150,)
C       -1.7193002798    2.0511396210   -0.3452177655
C       -1.5346179254    1.1137989135   -1.5545194035
C       -0.3419746485    1.5931058464   -2.3985524124
C       -1.4522465859   -0.3213324818   -1.0641873587
C       -0.8097371453   -1.3926496967   -1.5572611974
C        0.0181468711   -1.5249935969   -2.8174154369
H       -2.5915771165    1.7664266495    0.2533300540
H       -1.8584050206    3.0878253195   -0.6702921725
H       -0.8392688131    2.0168751004    0.3077483860
H       -2.4420204708    1.1995174375   -2.1724949009
H       -0.2686498568    1.0754601332   -3.3563382738
H        0.5999365968    1.4440013762   -1.8590041847
H       -0.4405020629    2.6635236272   -2.6105864703
H       -2.0178745466   -0.4963430601   -0.1473917711
H       -0.9122191799   -2.3106846171   -0.9788736454
H        1.0007337516   -1.0503481560   -2.7180039280
H       -0.4746171367   -1.0782168755   -3.6856423508
H        0.1902393578   -2.5807154168   -3.0465549253
18   
torsion grid (-135,)
C       -1.6049960145    1.9920132485   -0.3306887689
C       -1.6216285632    1.0818458478   -1.5763638453
C       -0.5916432567    1.5675992595   -2.6031758259
C       -1.5459349920   -0.3666249005   -1.1351389155
C       -0.8349552658   -1.4293439052   -1.5479841779
C        0.2201868802   -1.5823667233   -2.6134162969
H       -2.3750454495    1.6975158905    0.3903928950
H       -1.7849067820    3.0365454918   -0.6081427248
H       -0.6342878328    1.9374707982    0.1756603789
H       -2.6161861829    1.2001738244   -2.0346341490
H       -0.6807234877    1.0384358469   -3.5556551274
H        0.4315996821    1.4464141167   -2.2318739297
H       -0.7463817081    2.6335021101   -2.8045174972
H       -2.2526150553   -0.5766988001   -0.3293092600
H       -1.0472738444   -2.3607856069   -1.0200199644
H        1.1311031042   -2.0128143601   -2.1786909691
H        0.4926827994   -0.6537354912   -3.1087981782
H       -0.1202003584   -2.2891021326   -3.3813858603
18   
torsion grid (-120,)
C       -1.4682256318    1.9424223382   -0.3046861611
C       -1.6628094728    1.1069560412   -1.5876932647
C       -0.6986101734    1.5788422635   -2.6823419088
C       -1.6602169395   -0.3652604926   -1.2293982103
C       -0.8912055820   -1.4073514173   -1.5863965827
C        0.2998607499   -1.5078908679   -2.5045867390
H       -2.1923927567    1.6641567496    0.4685233239
H       -1.5904621399    3.0114420454   -0.5129895288
H       -0.4641785678    1.7870417703    0.1059794768
H       -2.6815903204    1.3172165300   -1.9477555294
H       -0.8298405565    1.0170930489   -3.6117627241
H        0.3458540819    1.4902831213   -2.3664060783
H       -0.8832282033    2.6362110071   -2.9030947444
H       -2.4581188759   -0.6056347017   -0.5231931714
H       -1.1640658338   -2.3619265213   -1.1327831250
H        1.1615866854   -1.9081734070   -1.9553469028
H        0.5987010607   -0.5633215568   -2.9524748501
H        0.0927308338   -2.2178924319   -3.3155805167
18   
torsion grid (-105,)
C       -1.3400070780    1.8664107533   -0.3133275155
C       -1.7084872686    1.1059932532   -1.6047626849
C       -0.8277111514    1.5726315665   -2.7728946264
C       -1.7641407765   -0.3824175322   -1.3192765087
C       -0.9382261461   -1.4014969080   -1.6075958246
C        0.3680420777   -1.4368591557   -2.3578218066
H       -2.0052983500    1.5972741458    0.5140789968
H       -1.4087017414    2.9499824854   -0.4649975113
H       -0.3149546784    1.6268118131   -0.0095051502
H       -2.7401372899    1.3904982794   -1.8571367243
H       -0.9948839565    0.9725261244   -3.6725503447
H        0.2369528087    1.5325231456   -2.5237085105
H       -1.0606319309    2.6157984395   -3.0146415572
H       -2.6410025655   -0.6521315817   -0.7270034212
H       -1.2521784609   -2.3789446914   -1.2371454394
H        1.1536647645   -1.8590974522   -1.7184122628
H        0.7061568136   -0.4623119134   -2.7026083507
H        0.2897347875   -2.0978045786   -3.2306126130
18   
torsion grid (-90,)
C       -1.7448473070    1.4770335299   -2.8623774789
C       -0.3732233767    1.3170202252   -2.1754266309
C       -0.4780619754    1.5152418108   -0.6534602765
C        0.3096175524    0.0374329792   -2.6285251651
C        0.2541586433   -1.2024862787   -2.1173103203
C       -0.5514337486   -1.7098197096   -0.9454742846
H       -1.6532733674    1.4086791053   -3.9514034776
H       -2.1944032662    2.4466890231   -2.6177804686
H       -2.4341811717    0.6898961262   -2.5369210008
H        0.2606627538    2.1330684256   -2.5471516057
H        0.4758663173    1.3021606544   -0.1605932944
H       -1.2406892360    0.8771436344   -0.2003357903
H       -0.7503739243    2.5534077734   -0.4316635981
H        0.9383646625    0.1613727641   -3.5112760950
H        0.8601255690   -1.9588025218   -2.6170294953
H        0.0329677035   -1.6905060388   -0.0164873846
H       -0.8467735802   -2.7508059656   -1.1145080483
H       -1.4612900532   -1.1317179290   -0.7769718181
18   
torsion grid (-75,)
C       -1.7943830298    1.3160837935   -2.7954582814
C       -0.3743895758    1.3217821361   -2.1947323909
C       -0.3920714732    1.6229234077   -0.6846977540
C        0.4047654192    0.0692429718   -2.5696005857
C        0.2815716006   -1.1806799468   -2.0959128612
C       -0.6985656173   -1.7137681556   -1.0827035163
H       -1.7617256446    1.1596917041   -3.8784857445
H       -2.3015520573    2.2688017327   -2.6025775610
H       -2.4050528962    0.5159669166   -2.3642144976
H        0.1576799300    2.1577755565   -2.6660368128
H        0.6224619888    1.6160761653   -0.2734951217
H       -0.9829263601    0.8946904022   -0.1231145272
H       -0.8273288793    2.6122505855   -0.5016619868
H        1.1769630903    0.2212969569   -3.3241375798
H        0.9681236927   -1.9263562555   -2.4988591146
H       -0.1963898075   -1.9464792697   -0.1345217189
H       -1.1420685446   -2.6497721671   -1.4425014213
H       -1.5127499336   -1.0207260697   -0.8691111296
18   
torsion grid (-60,)
C       -1.9003498845    1.3662118712   -2.6334792624
C       -0.4386221045    1.4324646423   -2.1504111576
C       -0.3533141450    1.7642342839   -0.6473090061
C        0.3724026228    0.1979693091   -2.5195186283
C        0.1668071238   -1.0843771121   -2.1798407726
C       -0.9198348561   -1.6741836009   -1.3192700992
H       -1.9484211250    1.1503049633   -3.7056676162
H       -2.4051193084    2.3229474146   -2.4552724358
H       -2.4682718761    0.5895140438   -2.1138801598
H        0.0256853235    2.2722684877   -2.6818329010
H        0.6888794517    1.8541652239   -0.3244018963
H       -0.8224771819    0.9871269590   -0.0362855125
H       -0.8605409978    2.7120920137   -0.4320974812
H        1.2386580950    0.3914203717   -3.1526176690
H        0.8790497183   -1.8134085778   -2.5688067673
H       -0.4819826096   -2.2647066783   -0.5048747700
H       -1.5455871313   -2.3608023731   -1.9039338565
H       -1.5726637777   -0.9237036030   -0.8736615881
18   
torsion grid (-45,)
C       -1.9486968746    1.3058858324   -2.4796248068
C       -0.4630986115    1.4646772457   -2.1081546005
C       -0.3035605341    1.9348466465   -0.6473587092
C        0.3992944447    0.2429498729   -2.3853061792
C        0.1602285651   -1.0523768679   -2.1266224641
C       -1.0266625006   -1.6756974389   -1.4346050851
H       -2.0611634053    0.9068843821   -3.4929219023
H       -2.4505838622    2.2795263282   -2.4401856319
H       -2.4791039686    0.6381952334   -1.7966440731
H       -0.0661211082    2.2648227449   -2.7454176697
H        0.7481981038    2.1146975787   -0.4016798042
H       -0.6814463751    1.1779163228    0.0483622829
H       -0.8587743277    2.8641157064   -0.4730291238
H        1.3498802527    0.4646361761   -2.8717240400
H        0.9273359920   -1.7603198989   -2.4421629535
H       -0.6995595480   -2.5100946646   -0.8043088764
H       -1.7412177855   -2.0862363310   -2.1599765972
H       -1.5650431417   -0.9718157684   -0.7984805257
18   
torsion grid (-30,)
C       -1.9716856952    1.3383741327   -2.2716142771
C       -0.4610029809    1.4900991539   -2.0291286126
C       -0.1878353237    2.1126563645   -0.6441209005
C        0.3977566621    0.2530881543   -2.2215043083
C        0.1403023693   -1.0554510740   -2.0653867853
C       -1.1219186151   -1.7609175050   -1.6421595200
H       -2.1788148336    0.7559068404   -3.1746497040
H       -2.4266327926    2.3277655354   -2.3940903970
H       -2.4787446873    0.8573307478   -1.4303643528
H       -0.0990214153    2.2095621035   -2.7765788851
H        0.8813477751    2.2942208939   -0.4912699851
H       -0.5290392814    1.4396191717    0.1502949562
H       -0.7142118137    3.0681339409   -0.5341004599
H        1.4230471167    0.4951341242   -2.5073459884
H        0.9738024069   -1.7300687298   -2.2679653597
H       -0.9068238390   -2.4392097599   -0.8072013825
H       -1.5099796127   -2.3844135703   -2.4581296504
H       -1.9155785556   -1.0862340998   -1.3273946762
18   
torsion grid (-15,)
C       -1.9715097498    1.2052612641   -2.1473176995
C       -0.4512946530    1.3809010041   -2.0404576556
C       -0.0865302153    2.1550906053   -0.7560942033
C        0.4120522015    0.1393139077   -2.1410687425
C        0.1518863385   -1.1759597485   -2.0592966913
C       -1.1367584242   -1.9270423524   -1.8435577714
H       -2.2526426462    0.6186424981   -3.0270621249
H       -2.4491316850    2.1878828330   -2.2322720581
H       -2.3882397687    0.7204080918   -1.2589330781
H       -0.1468273184    2.0141166175   -2.8871464422
H        0.9893972689    2.3519324645   -0.6986633508
H       -0.3687784010    1.5778311671    0.1314614808
H       -0.6092231754    3.1178667390   -0.7191478484
H        1.4651704852    0.3916986329   -2.2829918453
H        1.0197901129   -1.8300111214   -2.1607987303
H       -1.0596482128   -2.5491059955   -0.9426319493
H       -1.3199609394   -2.6140812792   -2.6796224154
H       -2.0102286424   -1.2885801203   -1.7347650935
18   
torsion grid (0,)
C       -1.9776709906    1.1796630391   -2.0224543024
C       -0.4584318621    1.3854244236   -2.0290743972
C       -0.0430729923    2.2935820240   -0.8520128527
C        0.4202170934    0.1508290457   -2.0345394165
C        0.1717078874   -1.1695213229   -2.0350121823
C       -1.1167152124   -1.9514423136   -2.0115357404
H       -2.3167819126    0.6014599857   -2.8866360739
H       -2.4805639308    2.1526093961   -2.0575686346
H       -2.3098922047    0.6716781999   -1.1111289241
H       -0.2087333000    1.9311221853   -2.9520663324
H        1.0312891681    2.5062696891   -0.8689805681
H       -0.2736227840    1.8118917541    0.1050004867
H       -0.5768427280    3.2498816522   -0.8896542878
H        1.4797693425    0.4158896884   -2.0508902003
H        1.0577701719   -1.8067830232   -2.0505538780
H       -1.1261452275   -2.6299482695   -1.1490535257
H       -1.1887193763   -2.5853379300   -2.9047572797
H       -2.0118779243   -1.3364312437   -1.9627445996
18   
torsion grid (15,)
C       -1.9951411732    1.1014534514   -1.9635990426
C       -0.4796771595    1.3309592679   -2.0431707505
C       -0.0548442362    2.3611741961   -0.9754958647
C        0.4148389165    0.1107494646   -1.9292085527
C        0.1959891709   -1.2119532475   -2.0180248806
C       -1.0632168455   -2.0107024315   -2.2358570227
H       -2.3735391462    0.5365392694   -2.8193882293
H       -2.5154507703    2.0656450187   -1.9553762395
H       -2.2682259601    0.5675951808   -1.0470904800
H       -0.2623457691    1.7821538557   -3.0236371105
H        1.0151691515    2.5868505894   -1.0388924548
H       -0.2569946435    1.9789207222    0.0318147497
H       -0.6046972772    3.3007137648   -1.0982742755
H        1.4601865423    0.3894735394   -1.7804565705
H        1.0855497264   -1.8358133175   -1.9136850184
H       -1.1911583709   -2.7396898206   -1.4257068572
H       -0.9830332084   -2.5906270870   -3.1644453184
H       -1.9681013727   -1.4106381603   -2.2924429606
18   
torsion grid (30,)
C       -1.9950871328    1.0987238317   -1.5898883370
C       -0.5140703071    1.3331276309   -1.9331360815
C        0.0469258514    2.4821599263   -1.0749504746
C        0.3837342368    0.1148904432   -1.7932008459
C        0.1226960641   -1.1941242571   -1.9400664678
C       -1.1591322512   -1.8746747680   -2.3664502259
H       -2.4889149798    0.4256970643   -2.2921067788
H       -2.5386951423    2.0499107384   -1.6089492255
H       -2.0974748782    0.6738328829   -0.5849063635
H       -0.4636447419    1.6615287839   -2.9832370293
H        1.0886131400    2.7021401405   -1.3329600290
H        0.0129708458    2.2226645465   -0.0101306778
H       -0.5357008497    3.3986524204   -1.2170959143
H        1.4091025482    0.3600241665   -1.5116466162
H        0.9576267044   -1.8682089332   -1.7491195168
H       -1.8788019371   -1.9488600134   -1.5426436754
H       -0.9504068487   -2.8939499468   -2.7051652195
H       -1.6538423561   -1.3508095249   -3.1887368100
18   
torsion grid (45,)
C       -2.1887436301    1.2756196599   -1.4240336000
C       -0.6981236741    1.2985695464   -1.8109122296
C        0.0067449154    2.4960568627   -1.1542215688
C        0.0431268950    0.0115310705   -1.4796876863
C       -0.3299838952   -1.2612168789   -1.6855113352
C       -1.5326940177   -1.7709763574   -2.4405993786
H       -2.7495565751    0.5062994516   -1.9560491848
H       -2.6526425357    2.2427179718   -1.6497354502
H       -2.3038257577    1.0892071172   -0.3499251853
H       -0.6479024006    1.4478021125   -2.9008022416
H        1.0566650693    2.5568082730   -1.4610846142
H       -0.0189178377    2.4095371747   -0.0612010469
H       -0.4795315452    3.4386093332   -1.4272565048
H        0.9809874944    0.1541537001   -0.9408763961
H        0.3373868955   -2.0339364983   -1.3033060979
H       -1.2779838013   -2.6902375493   -2.9791415146
H       -1.9017485957   -1.0492395373   -3.1733342896
H       -2.3617249927   -2.0172130995   -1.7645220040
18   
torsion grid (60,)
C       -2.1192563922    1.3709615140   -1.2765247054
C       -0.6607371620    1.2981845747   -1.7694560934
C        0.1371182546    2.5243348070   -1.3040035932
C        0.0276531613    0.0127750209   -1.3402555843
C       -0.3324040697   -1.2439999025   -1.6412593185
C       -1.4281464242   -1.6731904172   -2.5823022173
H       -2.7153076402    0.5305015704   -1.6386374323
H       -2.5951465167    2.2979516038   -1.6175887954
H       -2.1561948705    1.3556807108   -0.1809661608
H       -0.6901442958    1.3202126530   -2.8688511672
H        1.1630701979    2.4991678827   -1.6872916562
H        0.1888552035    2.5611753137   -0.2089808801
H       -0.3295339540    3.4538155376   -1.6474081538
H        0.8633260506    0.1361968341   -0.6498151751
H        0.2435171865   -2.0533361644   -1.1919014915
H       -1.0729315029   -2.4717430368   -3.2440234235
H       -1.7854776194   -0.8523761515   -3.2091194226
H       -2.2894848403   -2.0769303477   -2.0340269236
18   
torsion grid (75,)
C       -2.1515473833    1.4419675413   -1.1423135575
C       -0.7327529295    1.2707924314   -1.7201609749
C        0.1449659679    2.4900363328   -1.4028184732
C       -0.0885315534   -0.0067257047   -1.2164649489
C       -0.3681624022   -1.2573277847   -1.6121666359
C       -1.3381388368   -1.6658751591   -2.6891338196
H       -2.7917327767    0.5950832847   -1.4058848699
H       -2.6192816790    2.3587021497   -1.5208480829
H       -2.1190964610    1.5057771014   -0.0483592624
H       -0.8295734267    1.2053816809   -2.8118891496
H        1.1441740240    2.3836409067   -1.8388897998
H        0.2633252877    2.6130017070   -0.3192525546
H       -0.3003536718    3.4105313442   -1.7956985699
H        0.6351966161    0.1161642716   -0.4090419618
H        0.1570989297   -2.0752953889   -1.1182379261
H       -0.8557318613   -2.3322800619   -3.4145305621
H       -1.7451469403   -0.8107696636   -3.2342015661
H       -2.1824406791   -2.2230255887   -2.2627810365
18   
torsion grid (90,)
C       -2.1651616384    1.5544248330   -0.9992338342
C       -0.8128132786    1.2579756744   -1.6768696618
C        0.1620500794    2.4333394243   -1.5039721036
C       -0.2145654897   -0.0204490437   -1.1316136664
C       -0.3950763765   -1.2654860627   -1.5964975580
C       -1.2113608524   -1.6799555173   -2.7920336535
H       -2.8747251965    0.7384300515   -1.1682507850
H       -2.6037406956    2.4812323653   -1.3879356631
H       -2.0406961376    1.6690163761    0.0841072191
H       -0.9997748402    1.1342508776   -2.7499456620
H        1.1154671721    2.2344488460   -2.0048378027
H        0.3718335423    2.6127786312   -0.4423592488
H       -0.2560500474    3.3561301869   -1.9212049326
H        0.3937849031    0.0991969417   -0.2328908040
H        0.0927138413   -2.0802050794   -1.0601639190
H       -0.5971263179   -2.2362526850   -3.5110590115
H       -1.6575804982   -0.8303237913   -3.3141249604
H       -2.0257030364   -2.3504895086   -2.4893600090
18   
torsion grid (105,)
C       -2.1757452435    1.6690478865   -0.8592244403
C       -0.9122479612    1.2454580280   -1.6328577811
C        0.1508921602    2.3570506860   -1.6009698115
C       -0.3546567661   -0.0382981930   -1.0655831802
C       -0.4246035389   -1.2719906336   -1.5874221538
C       -1.0634466460   -1.6870540726   -2.8864672077
H       -2.9505055263    0.8983234465   -0.9213734442
H       -2.5848903275    2.6042099063   -1.2593565223
H       -1.9479995406    1.8297240150    0.2014279374
H       -1.1982430243    1.0846973370   -2.6779002941
H        1.0386332643    2.0719418133   -2.1750011857
H        0.4689162919    2.5630725116   -0.5716289759
H       -0.2436361515    3.2894050015   -2.0205378959
H        0.1392181256    0.0704421100   -0.0972787016
H        0.0271316703   -2.0834552058   -1.0154524267
H       -0.3319415247   -2.1779759923   -3.5405085235
H       -1.4957846234   -0.8473369055   -3.4352265623
H       -1.8633456234   -2.4164532589   -2.7066920205
18   
torsion grid (120,)
C       -2.1815754579    1.7973169086   -0.8063045926
C       -1.0146304609    1.2172189143   -1.6266512112
C        0.1317597488    2.2390300523   -1.7441023310
C       -0.5157725206   -0.0618054253   -0.9996911190
C       -0.4713714009   -1.2895498808   -1.5382244637
C       -0.9133268692   -1.7108042036   -2.9149615628
H       -3.0142352929    1.0888606601   -0.7490584657
H       -2.5508170351    2.7272446214   -1.2539043805
H       -1.8629308836    2.0236531529    0.2184673282
H       -1.3838206673    1.0080175593   -2.6361013288
H        0.9487417368    1.8460939226   -2.3577520739
H        0.5412546034    2.4807038713   -0.7557772469
H       -0.2209591351    3.1729885998   -2.1967360792
H       -0.1455989237    0.0520151688    0.0219451802
H       -0.0694384109   -2.0920952374   -0.9184061272
H       -0.0764851790   -2.1505361636   -3.4720585468
H       -1.3111413698   -0.8833700218   -3.5066839015
H       -1.6897146385   -2.4836730428   -2.8525962367
18   
torsion grid (135,)
C       -2.1617349339    1.8878140265   -0.6781811555
C       -1.1186098945    1.1969174892   -1.5732184019
C        0.0829884979    2.1279331689   -1.8285260588
C       -0.6544898551   -0.0964562371   -0.9457940216
C       -0.4926627351   -1.2890372264   -1.5379928914
C       -0.7582707606   -1.6430589953   -2.9774418760
H       -3.0290727250    1.2413146754   -0.5083396464
H       -2.5139435127    2.8201888410   -1.1336530613
H       -1.7319285752    2.1362502123    0.2998822751
H       -1.5899939140    0.9837190183   -2.5386486950
H        0.8055819828    1.6597491502   -2.5044025095
H        0.6027704579    2.3583494095   -0.8908632856
H       -0.2431926486    3.0757248366   -2.2728687076
H       -0.3930586523   -0.0204839212    0.1120317565
H       -0.1245195803   -2.1093368369   -0.9205616092
H        0.1597798334   -1.9976322069   -3.4629092206
H       -1.1378697044   -0.7999862079   -3.5591447224
H       -1.4872682690   -2.4598949657   -3.0494877715
18   
torsion grid (150,)
C       -2.2168033675    1.9262289449   -0.6055032539
C       -1.3037967337    1.1170415369   -1.5401747651
C       -0.0605295495    1.9401384783   -1.9329728194
C       -0.8920165331   -0.1868264597   -0.8902680449
C       -0.6074823211   -1.3440654805   -1.5055303848
C       -0.6669607752   -1.6229318201   -2.9840601763
H       -3.1139539508    1.3584672212   -0.3363216537
H       -2.5354534823    2.8616247609   -1.0785748646
H       -1.6920206105    2.1839605988    0.3225091578
H       -1.8651341733    0.8996104265   -2.4564105225
H        0.5711687395    1.3869436369   -2.6350236280
H        0.5463661698    2.1711078021   -1.0496295949
H       -0.3499364331    2.8886186880   -2.4010655494
H       -0.7737387529   -0.1492382935    0.1942918484
H       -0.2939281583   -2.1835951211   -0.8841243111
H        0.3256503684   -1.8936770478   -3.3660572255
H       -1.0223354849   -0.7659052249   -3.5610223661
H       -1.3276792804   -2.4728337698   -3.1956660321
18   
torsion grid (165,)
C       -2.0317616268    2.0109169489   -0.5818875351
C       -1.2925256895    1.0832610375   -1.5581723178
C       -0.0211322484    1.7772676168   -2.0886987729
C       -0.9514046417   -0.2362396262   -0.8904631142
C       -0.5684953621   -1.3685218643   -1.4988380700
C       -0.4665559333   -1.6025886457   -2.9829636029
H       -2.9500758232    1.5458449384   -0.2067151292
H       -2.3037089330    2.9564017707   -1.0635287551
H       -1.3981636977    2.2463497802    0.2817537223
H       -1.9525043509    0.8902349560   -2.4138591741
H        0.5068115879    1.1486734418   -2.8115319885
H        0.6714070770    1.9902250688   -1.2662575673
H       -0.2699898672    2.7272795586   -2.5765679793
H       -0.9643876779   -0.2308210695    0.2004970694
H       -0.3114660268   -2.2210761033   -0.8695710370
H        0.5785233647   -1.7495107222   -3.2852376576
H       -0.8685659112   -0.7712157739   -3.5671040737
H       -1.0081180492   -2.5119488817   -3.2704180526
18   
torsion grid (180,)
C       -2.0678385334    2.0689968368   -0.4335321580
C       -1.4688607956    1.1192866453   -1.4833094849
C       -0.1976542753    1.7617579600   -2.0771956273
C       -1.1788292997   -0.2374546343   -0.8605091942
C       -0.6559781907   -1.3177758732   -1.4599258381
C       -0.3619719656   -1.4900641401   -2.9278012841
H       -2.9882169232    1.6607930129   -0.0009635442
H       -2.3050321176    3.0445187145   -0.8712995540
H       -1.3567760921    2.2330122481    0.3847977736
H       -2.1982556316    0.9939114814   -2.2957978048
H        0.2557521538    1.1430674123   -2.8547672248
H        0.5532551362    1.9111916889   -1.2931115441
H       -0.4293638300    2.7399024407   -2.5149454803
H       -1.3480095591   -0.3034768700    0.2150955129
H       -0.4523849116   -2.1885551656   -0.8362166263
H        0.7175253036   -1.4586479138   -3.1257890711
H       -0.8378290550   -0.7214414137   -3.5417418575
H       -0.7183508331   -2.4664984206   -3.2760443173
