13   
torsion grid (-165,)
C        0.3602058700    1.0396246418   -1.6428014689
C        0.5677480272   -2.2266251134   -3.9864747556
C       -0.1404652417   -1.2200878109   -1.9580937632
N       -0.4009841036    0.0677148198   -1.3363389499
O       -1.2507022139   -2.0616154797   -1.7813118200
O        0.1828958372   -1.0234028857   -3.3202459630
H        0.1744903031    2.0086774743   -1.1741895696
H        1.1871867868    0.9682650566   -2.3582967680
H        0.8302118438   -1.9452851160   -5.0081772345
H       -0.2528381160   -2.9510922511   -4.0005460554
H        1.4421814922   -2.6832107249   -3.5006561876
H        0.6912482716   -1.7268603751   -1.4480157075
H       -2.0425212943   -1.5000829334   -1.8404126598
13   
torsion grid (-150,)
C        0.3294365749    1.0413222095   -1.6657156230
C        0.5858316727   -2.2261893329   -3.9751763054
C       -0.1094771178   -1.2457272971   -1.9287430693
N       -0.2903776435    0.0159242767   -1.2366395025
O       -1.2767053363   -2.0215706892   -1.8102977119
O        0.2514189199   -1.0263250270   -3.2772579923
H        0.1879586376    1.9849257420   -1.1337613094
H        0.9896283227    1.0358469956   -2.5388106543
H        0.8842142812   -1.9278173415   -4.9821120740
H       -0.2719110757   -2.9043564508   -4.0281924393
H        1.4247315649   -2.7438456156   -3.4883340357
H        0.6766970637   -1.8228696089   -1.4224706891
H       -2.0327884019   -1.4132985586   -1.8680494970
13   
torsion grid (-135,)
C        0.2847565439    1.0439322376   -1.6759260633
C        0.5963157699   -2.2344764445   -3.9666809598
C       -0.0619130889   -1.2679626998   -1.9014368899
N       -0.1641734099   -0.0285454714   -1.1572010825
O       -1.2832161018   -1.9657752270   -1.8254542528
O        0.3274667390   -1.0360018992   -3.2393944486
H        0.1835852932    1.9685469988   -1.1028114088
H        0.7663178841    1.0939668763   -2.6569177276
H        0.9299721445   -1.9285314095   -4.9601847822
H       -0.3016755197   -2.8549759753   -4.0514850740
H        1.3926098631   -2.8176323651   -3.4827202069
H        0.6749973942   -1.9127353516   -1.4047334600
H       -1.9963860491   -1.3137899673   -1.9306145467
13   
torsion grid (-120,)
C        0.2289945922    1.0437228779   -1.6764790361
C        0.6033301687   -2.2492964779   -3.9616808751
C       -0.0043657969   -1.2865371062   -1.8800409130
N       -0.0316206113   -0.0624520101   -1.1021702635
O       -1.2752591477   -1.8963977345   -1.8378209621
O        0.4159781581   -1.0518598310   -3.2079090735
H        0.1641734830    1.9558932914   -1.0785522075
H        0.5237928594    1.1346937014   -2.7260167212
H        0.9753282987   -1.9462883162   -4.9423254470
H       -0.3376660677   -2.7975585735   -4.0742973462
H        1.3449584571   -2.9031081239   -3.4813704011
H        0.6769664331   -1.9936201727   -1.3910857488
H       -1.9359533641   -1.2011722227   -1.9958119079
13   
torsion grid (-105,)
C        0.1694441301    1.0369103846   -1.6692599670
C        0.6122683504   -2.2657306989   -3.9583346978
C        0.0503011873   -1.3004503336   -1.8658082257
N        0.1053612317   -0.0851819651   -1.0706542559
O       -1.2625502601   -1.8169171610   -1.8490297593
O        0.5025244951   -1.0712917290   -3.1850561852
H        0.1532267851    1.9429778959   -1.0588663054
H        0.2595510873    1.1505514746   -2.7542830396
H        1.0229437314   -1.9743658784   -4.9269733003
H       -0.3644634553   -2.7410908788   -4.0966961782
H        1.2946097700   -2.9815517104   -3.4785810660
H        0.6712093936   -2.0638920924   -1.3835092961
H       -1.8657689842   -1.0839480052   -2.0585086267
13   
torsion grid (-90,)
C        0.1118560409    1.0256259093   -1.6536804701
C        0.6238533667   -2.2851905520   -3.9561347497
C        0.0979587688   -1.3080172450   -1.8602077090
N        0.2454404199   -0.0951616882   -1.0647823860
O       -1.2484530376   -1.7315814874   -1.8633749789
O        0.5838136182   -1.0942348862   -3.1697506799
H        0.1650524802    1.9338598651   -1.0487331596
H       -0.0279117162    1.1429299887   -2.7346946643
H        1.0690091808   -2.0110326279   -4.9144098217
H       -0.3802229168   -2.6922651230   -4.1155802676
H        1.2481867899   -3.0508544847   -3.4746072615
H        0.6543072427   -2.1181464417   -1.3772302929
H       -1.7942327750   -0.9699119250   -2.1223744619
13   
torsion grid (-75,)
C        0.0662728183    1.0182818833   -1.6188029823
C        0.6387057331   -2.3139902009   -3.9531327973
C        0.1295637992   -1.3041285082   -1.8685819164
N        0.3886989804   -0.0931105200   -1.0909057117
O       -1.2414434595   -1.6406308850   -1.8819297304
O        0.6402097834   -1.1176423977   -3.1721837627
H        0.2183663570    1.9320254802   -1.0397100274
H       -0.3338012250    1.1333400694   -2.6355902098
H        1.1018459170   -2.0613748893   -4.9086940970
H       -0.3793554693   -2.6821248318   -4.1193777758
H        1.2285233067   -3.1009475379   -3.4631213303
H        0.6228263401   -2.1498346103   -1.3797198824
H       -1.7317554189   -0.8738437496   -2.2238106797
13   
torsion grid (-60,)
C        0.4718214578    0.7828574078   -1.7576263723
C        0.8584749961   -2.0580356988   -3.8475396978
C       -0.3994064023   -1.3509068333   -1.9530945846
N        0.5714297526   -0.4243223571   -1.3656804870
O       -1.6916715603   -0.9186421921   -1.6236918994
O       -0.3250108111   -1.4190257788   -3.3684318178
H        1.1723052253    1.5188951978   -1.3560217733
H       -0.2785063705    1.1337169036   -2.4758313143
H        0.7489643913   -2.1463797727   -4.9299418743
H        0.9717780297   -3.0612681506   -3.4130836005
H        1.7532974842   -1.4679629363   -3.6172341942
H       -0.1940814152   -2.3509276432   -1.5410253768
H       -2.3107373153   -1.4919788442   -2.1063579108
13   
torsion grid (-45,)
C        0.4279685917    0.8238997800   -1.6883762889
C        0.8709022564   -2.1281128286   -3.8644334359
C       -0.3714563563   -1.3355674025   -1.9917434936
N        0.6464610591   -0.4138477776   -1.4868234418
O       -1.6585657773   -0.8750678792   -1.6715290413
O       -0.3099463048   -1.4709571409   -3.4004331131
H        1.1835576610    1.5428241427   -1.3625213530
H       -0.4806041514    1.2163890785   -2.1582988427
H        0.7398111186   -2.2804420227   -4.9372955844
H        1.0004001886   -3.1028082453   -3.3736904219
H        1.7625225176   -1.5175305520   -3.6843614213
H       -0.1810016587   -2.3169313031   -1.5302053367
H       -2.2813916820   -1.3958285472   -2.2058491284
13   
torsion grid (-30,)
C        0.3891601734    0.8695117545   -1.6114443658
C        0.8729412618   -2.2030158525   -3.8808176267
C       -0.3428585782   -1.3085506832   -2.0347198037
N        0.6920570368   -0.3662664083   -1.6234030063
O       -1.6356272312   -0.8536857149   -1.7211808745
O       -0.3027078119   -1.5250299426   -3.4315645942
H        1.1715973709    1.5900567571   -1.3613158253
H       -0.6148006640    1.2529793512   -1.8204575837
H        0.7201703758   -2.4146644165   -4.9406525916
H        1.0143057798   -3.1483213541   -3.3388435104
H        1.7633986059   -1.5796467585   -3.7504649389
H       -0.1358766160   -2.2571573626   -1.5141466981
H       -2.2431022408   -1.3101900674   -2.3265494839
13   
torsion grid (-15,)
C        0.3285361668    0.8501829108   -1.5660182518
C        0.8840771099   -2.2606113225   -3.8912606262
C       -0.3341271612   -1.3541108773   -2.0429453547
N        0.6950819676   -0.3463992247   -1.7855252221
O       -1.6497909781   -0.9923646458   -1.7083654986
O       -0.3366796226   -1.6905460353   -3.4109302517
H        1.0971256941    1.6131853927   -1.4216682992
H       -0.7201140240    1.1586240580   -1.4841316079
H        0.6886744872   -2.5756318989   -4.9178626616
H        1.1669329775   -3.1355461959   -3.2908700624
H        1.6996440055   -1.5320118588   -3.8698964233
H       -0.0738322157   -2.2247086374   -1.4249598681
H       -2.0968709447   -0.7640423626   -2.5411267756
13   
torsion grid (0,)
C        0.3094872907    0.8637316710   -1.5034288339
C        0.8875699833   -2.3135368325   -3.8984800005
C       -0.3294409088   -1.3196973636   -2.0957880212
N        0.6783351139   -0.2758957081   -1.9271928374
O       -1.6487213828   -0.9704535690   -1.7691243677
O       -0.3417988468   -1.7461968357   -3.4382840040
H        1.0621528200    1.6484269654   -1.3966012417
H       -0.7233371337    1.0994501131   -1.2227587070
H        0.6895807093   -2.6930072351   -4.9026158709
H        1.1972866260   -3.1458868076   -3.2519322627
H        1.6855153769   -1.5663069973   -3.9282414486
H       -0.0421738906   -2.1403701068   -1.4228191149
H       -2.0757982950   -0.6942379916   -2.5982941926
13   
torsion grid (15,)
C        0.3074431107    0.8634472104   -1.4530577417
C        0.8905820417   -2.3510688099   -3.8964197758
C       -0.3358938677   -1.2860224499   -2.1438050724
N        0.6390433675   -0.2007605148   -2.0633447213
O       -1.6605490660   -0.9490796966   -1.8287102870
O       -0.3529012632   -1.8023908269   -3.4539218145
H        1.0381416931    1.6726506044   -1.3813204414
H       -0.6757815080    1.0156943346   -0.9931146920
H        0.6989611516   -2.7812710112   -4.8811026071
H        1.2292088830   -3.1445879828   -3.2157788400
H        1.6643960485   -1.5814233604   -3.9646948437
H       -0.0198674429   -2.0519249978   -1.4205851551
H       -2.0741256859   -0.6572431971   -2.6597049111
13   
torsion grid (30,)
C        0.0884519313   -0.3854024370   -0.1815020221
C       -0.3246017158    0.1628212617   -3.9305325244
C       -0.5816145962   -1.4255587657   -2.1670852926
N        0.3954401286   -0.7111159366   -1.3718879333
O       -1.9023096840   -1.0630617695   -1.7748319206
O       -0.3819998045   -1.2157393670   -3.5393828507
H        0.8430813783    0.1228582768    0.4238751807
H       -0.8901270729   -0.5730917303    0.2729012445
H       -0.2717315948    0.1638854305   -5.0206571838
H        0.5663640065    0.6442919983   -3.5153824418
H       -1.2196854505    0.7057009792   -3.6068833089
H       -0.4171063271   -2.5016041739   -2.0291256719
H       -2.5089616921   -1.5484636328   -2.3576049262
13   
torsion grid (45,)
C        0.1107458313   -0.4420561614   -0.1250716188
C       -0.3294916526    0.1428540230   -3.9908219028
C       -0.5945358512   -1.3550594994   -2.1503565865
N        0.3458624257   -0.5742457531   -1.3673789410
O       -1.9214473595   -0.9743514363   -1.7995027807
O       -0.3638300922   -1.2136803794   -3.5249224455
H        0.8288669156    0.1143567609    0.4822378579
H       -0.7780810163   -0.8400820328    0.3789948468
H       -0.2094883534    0.0843393315   -5.0739989321
H        0.5160539457    0.6797965191   -3.5505389765
H       -1.2608321171    0.6683447473   -3.7523823564
H       -0.4305715115   -2.4233251146   -1.9584271674
H       -2.5180516576   -1.4913708712   -2.3659306478
13   
torsion grid (60,)
C        0.1439397847    1.0595829765   -1.1845565896
C        0.3435342404   -2.5395614138   -4.1165237909
C        0.1782065327   -0.8890818657   -2.4380013258
N       -0.0628713251    0.5450626747   -2.3288839884
O       -0.6406512782   -1.6415994748   -1.5596516648
O       -0.0481050842   -1.2086319813   -3.7814177190
H       -0.0364749509    2.1287701362   -1.0527467704
H        0.4913403027    0.4965813294   -0.3068900448
H        0.1620863217   -2.6541470941   -5.1865248033
H       -0.2379839678   -3.2838947844   -3.5613015675
H        1.4124136084   -2.6982290118   -3.9130115073
H        1.2060609830   -1.1494448159   -2.1454133698
H       -1.5628377048   -1.4193873727   -1.7806377616
13   
torsion grid (75,)
C        0.2052080881    1.0642939682   -1.2104342288
C        0.3820162220   -2.5207422824   -4.1094596263
C        0.0915603599   -0.9115611917   -2.4097485999
N       -0.2056718660    0.5076367268   -2.2765411468
O       -0.7537766035   -1.6821322350   -1.5766289859
O       -0.0653258646   -1.2091875232   -3.7669113684
H       -0.0337581872    2.1164277466   -1.0408551057
H        0.7938015063    0.5530509631   -0.4346764879
H        0.2456094140   -2.6209633355   -5.1875288895
H       -0.1980666314   -3.2917694060   -3.5904268414
H        1.4466084310   -2.6503909481   -3.8670270343
H        1.1089438273   -1.1641609473   -2.0722851095
H       -1.6684912334   -1.4444822332   -1.8130374786
13   
torsion grid (90,)
C        0.2607506524    1.0718652748   -1.2480156152
C        0.4131736585   -2.4916729986   -4.1000966767
C        0.0184364033   -0.9441421868   -2.3637121113
N       -0.3223377567    0.4581293809   -2.1951616827
O       -0.8548836799   -1.7428043917   -1.5930927930
O       -0.0721157096   -1.1992035436   -3.7364753510
H       -0.0089949816    2.1108491499   -1.0469171751
H        1.0342569409    0.6223077979   -0.6079501340
H        0.3210459027   -2.5611048941   -5.1852797761
H       -0.1735114748   -3.2875015423   -3.6281635311
H        1.4695569772   -2.6107643080   -3.8195182125
H        1.0234018134   -1.1966719594   -1.9880394838
H       -1.7601212834   -1.4832664770   -1.8431383605
13   
torsion grid (105,)
C        0.3053928620    1.0781397122   -1.2963491119
C        0.4386058381   -2.4547654116   -4.0887356930
C       -0.0391755447   -0.9832038848   -2.3057601938
N       -0.4144202734    0.4022340709   -2.0948157328
O       -0.9385430510   -1.8169000860   -1.6110869582
O       -0.0652336235   -1.1786482651   -3.6928295535
H        0.0251384411    2.1104805372   -1.0764258399
H        1.2093216246    0.6884744339   -0.8053615531
H        0.3906835493   -2.4797154055   -5.1787122410
H       -0.1650765505   -3.2693442535   -3.6739534459
H        1.4830139884   -2.5839060150   -3.7703424473
H        0.9523240831   -1.2412079600   -1.8978074556
H       -1.8333738809   -1.5256181705   -1.8633806770
13   
torsion grid (120,)
C        0.3373183665    1.0822278368   -1.3530423098
C        0.4567157375   -2.4128841267   -4.0753887032
C       -0.0798683051   -1.0247700168   -2.2408878636
N       -0.4834117003    0.3443990129   -1.9807468952
O       -1.0002715372   -1.8972184077   -1.6319821685
O       -0.0433321176   -1.1483805584   -3.6390688111
H        0.0549299657    2.1114240194   -1.1215539459
H        1.3320912721    0.7489798557   -1.0230458789
H        0.4644165137   -2.3807021752   -5.1662488647
H       -0.1822630258   -3.2346161108   -3.7344250183
H        1.4808239430   -2.5804181192   -3.7118195626
H        0.8972211861   -1.2934557656   -1.8064433637
H       -1.8857128361   -1.5685661423   -1.8709075176
13   
torsion grid (135,)
C        0.3568884611    1.0817897196   -1.4153837048
C        0.4713499551   -2.3689124083   -4.0605721061
C       -0.1051114605   -1.0672522621   -2.1724140421
N       -0.5277731009    0.2864075146   -1.8585098068
O       -1.0472239578   -1.9725356152   -1.6582162773
O       -0.0022564988   -1.1117909072   -3.5752828758
H        0.0729307212    2.1080831705   -1.1733210424
H        1.4081098797    0.8012591123   -1.2561685357
H        0.5388319298   -2.2735051591   -5.1457137060
H       -0.2158555927   -3.1815413096   -3.8023751123
H        1.4671120545   -2.5995513462   -3.6549889592
H        0.8542329454   -1.3544751570   -1.7118682977
H       -1.9225778736   -1.6019560503   -1.8707464368
13   
torsion grid (150,)
C        0.3669885897    1.0745204533   -1.4809819008
C        0.4886699655   -2.3237586118   -4.0433321167
C       -0.1222150976   -1.1098368351   -2.1050234225
N       -0.5477202200    0.2301880050   -1.7308314446
O       -1.0920649541   -2.0332314701   -1.6896101590
O        0.0489063083   -1.0758919854   -3.5045799793
H        0.0868826577    2.0966156046   -1.2176379747
H        1.4406475822    0.8406815235   -1.5110238387
H        0.6133297009   -2.1677920836   -5.1163776989
H       -0.2458441539   -3.1161636461   -3.8665080747
H        1.4518844073   -2.6245933278   -3.6061468740
H        0.8137986929   -1.4281799785   -1.6189008608
H       -1.9546060164   -1.6165383457   -1.8646065584
13   
torsion grid (165,)
C        0.3725846760    1.0601214195   -1.5466008105
C        0.5122598253   -2.2791539901   -4.0238411295
C       -0.1375855229   -1.1511827351   -2.0444213869
N       -0.5374606423    0.1754986226   -1.5954632424
O       -1.1433566790   -2.0719048123   -1.7203393898
O        0.0929081983   -1.0471687019   -3.4347370338
H        0.1064461472    2.0726836816   -1.2360707105
H        1.4246430529    0.8723302431   -1.8010900067
H        0.6922946070   -2.0694466317   -5.0798204266
H       -0.2579339488   -3.0507756134   -3.9246455577
H        1.4425095629   -2.6403703145   -3.5615623830
H        0.7702201775   -1.5186664531   -1.5416299009
H       -1.9888719916   -1.6059454128   -1.8453389248
13   
torsion grid (180,)
C        0.3721833808    1.0459748040   -1.6027603105
C        0.5413391768   -2.2446325605   -4.0040153734
C       -0.1471898033   -1.1889661338   -1.9957953050
N       -0.4885472287    0.1216842841   -1.4604616814
O       -1.2019317068   -2.0805508299   -1.7525963257
O        0.1351314742   -1.0296041612   -3.3723066635
H        0.1380748859    2.0408874773   -1.2178735780
H        1.3413584548    0.9107427962   -2.0992975134
H        0.7681585845   -1.9925412811   -5.0416866678
H       -0.2547995712   -2.9952195409   -3.9700947859
H        1.4421815137   -2.6554067339   -3.5252259212
H        0.7254884022   -1.6227359179   -1.4853905717
H       -2.0227901005   -1.5636129004   -1.8280562053
