29   
torsion grid (-60,)
C        3.8906098243    0.2117803071   -2.5684073312
C        5.0773581837    0.3574535448   -0.4487569921
C        5.0563655277    0.5537142453   -3.2430416008
C        6.2503758555    0.6974254030   -1.1198654398
C        3.8893599836    0.1163227493   -1.1609190296
C        0.5941138180   -0.7604480905   -0.3215781117
C        6.2252925344    0.7997900714   -2.5120138404
C       -0.6184076203   -1.1474177332   -0.9136194033
C        0.2213718645   -0.6071665772    1.1823736944
N        2.7697934698   -0.2165098141   -0.3688974644
N        1.7032297143   -0.4399153858   -1.0396774453
N       -1.4867073039   -1.5135158755    0.1773615456
N       -1.2418437745   -0.3566596893    1.0475995326
N       -1.0000144549   -1.3223480297   -2.1796410821
N        7.5932750514    2.9447297349   -3.5132036025
O        0.8417374920   -0.6653848723    2.2058267786
O        8.8580906777    0.9607293204   -2.5080282331
O        7.6249608118    0.7360443052   -4.7546738144
S        7.7193188988    1.2520713027   -3.3849187008
H        2.9756718829    0.0102918298   -3.1143297669
H        5.0568271066    0.2646554085    0.6329489010
H        5.0771642332    0.6150916292   -4.3266816562
H        7.1765223641    0.8641620971   -0.5793756916
H       -1.1938741594   -2.3538780098    0.6678780210
H       -1.4437128687    0.4785006026    0.5038298318
H       -1.9388828007   -1.6419144084   -2.3817361317
H       -0.3855001490   -1.0362061925   -2.9324502218
H        8.3146171597    3.3831811508   -2.9419118792
H        7.6949248799    3.2076328756   -4.4928823616
29   
torsion grid (-45,)
C        3.8364389846    0.3018850833   -2.5535235589
C        5.0585835852    0.3007115504   -0.4489025771
C        5.0058962583    0.6233732214   -3.2319446889
C        6.2358401773    0.6190426603   -1.1240832449
C        3.8533222060    0.1395547428   -1.1528472201
C        0.5422761039   -0.6910681891   -0.3008402449
C        6.1949941097    0.7835188851   -2.5095575116
C       -0.6211746501   -1.1580576288   -0.9136698609
C        0.1808732180   -0.5248521944    1.1638763736
N        2.7302509336   -0.1801991437   -0.3560974590
N        1.6653907327   -0.4022950127   -1.0230285849
N       -1.5775172290   -1.4642879283    0.1032239153
N       -1.3001793700   -0.4704304392    1.1097997139
N       -0.8537845887   -1.5052686526   -2.1856725457
N        7.6263742009    2.9083851300   -3.4634612471
O        0.8465658053   -0.3654440551    2.1529554336
O        8.8319686201    0.8544119348   -2.5306199807
O        7.5688359154    0.7364267462   -4.7684237604
S        7.6954168462    1.2099960454   -3.3861481167
H        2.9039662362    0.1719841899   -3.0915300862
H        5.0481331629    0.1638437236    0.6282500195
H        5.0125129223    0.7362868570   -4.3116297450
H        7.1760244394    0.7234815343   -0.5923468935
H       -1.4806695437   -2.3946426597    0.5003916293
H       -1.6438380475    0.4296056405    0.7832061674
H       -1.7999049849   -1.7181171271   -2.4755422959
H       -0.1575960553   -1.2752410392   -2.8854642677
H        8.3733547475    3.3052507889   -2.8947486129
H        7.7162129125    3.1972224018   -4.4369324370
29   
torsion grid (-30,)
C        3.8064869839    0.3129629538   -2.5940327789
C        5.0417420559    0.2227763761   -0.4990505373
C        4.9817969538    0.6105007524   -3.2736134406
C        6.2253399721    0.5154333534   -1.1750794094
C        3.8287130602    0.1144869269   -1.1986494852
C        0.5059877818   -0.6860808254   -0.3503743752
C        6.1802083707    0.7115867498   -2.5562367590
C       -0.6320353845   -1.1844807222   -0.9748720010
C        0.1395072962   -0.4644742233    1.0847351776
N        2.6984115969   -0.1856477408   -0.4016519369
N        1.6410670924   -0.4226655304   -1.0709210287
N       -1.6421740176   -1.4149179759   -0.0190494346
N       -1.3144272833   -0.5836669836    1.0865495959
N       -0.7736019223   -1.6544521520   -2.2309185252
N        7.6793967636    2.8065525501   -3.4708822040
O        0.7905114157   -0.0914727614    2.0328400380
O        8.8176801404    0.6884657249   -2.5968475394
O        7.5351094411    0.6705190723   -4.8267128732
S        7.6888133374    1.1056835693   -3.4345811341
H        2.8653524042    0.2321584994   -3.1266816539
H        5.0325079624    0.0652898278    0.5752780845
H        4.9847749413    0.7517487454   -4.3499634083
H        7.1718835718    0.5767899438   -0.6479218738
H       -1.7659707800   -2.3853535431    0.2565441341
H       -1.8200442427    0.2970357195    1.0696861702
H       -1.7075869580   -1.7243004592   -2.6158805821
H       -0.0122104241   -1.4633972012   -2.8732226823
H        8.4402009007    3.1639337379   -2.8944049373
H        7.7771890737    3.1157154593   -4.4373191092
29   
torsion grid (-15,)
C        3.8085975381    0.3744741178   -2.5732809655
C        5.0496927310    0.2874723419   -0.4813277273
C        4.9832238423    0.6651724191   -3.2572972319
C        6.2327882745    0.5709513744   -1.1622274553
C        3.8352349400    0.1795496473   -1.1779039420
C        0.5213933739   -0.6532423595   -0.3203166807
C        6.1841861032    0.7622142835   -2.5439807057
C       -0.5976957246   -1.1826337574   -0.9462886317
C        0.1563563491   -0.3939108474    1.0981296394
N        2.7039424685   -0.1120519243   -0.3778245996
N        1.6593575934   -0.3971513093   -1.0453317230
N       -1.6349473358   -1.3552423044   -0.0305887157
N       -1.2503357520   -0.6828085531    1.1524644742
N       -0.6983198990   -1.7125945340   -2.1926660212
N        7.6963451902    2.8480281606   -3.4586684415
O        0.7729805961    0.1107095685    2.0146469343
O        8.8213746105    0.7189041057   -2.5972674673
O        7.5276694354    0.7167920344   -4.8208518607
S        7.6918669039    1.1471800204   -3.4284446912
H        2.8648927974    0.2979902010   -3.1020850740
H        5.0423315368    0.1361035188    0.5938975243
H        4.9834202000    0.8046964146   -4.3338515826
H        7.1811556012    0.6302068229   -0.6381264040
H       -1.9081577399   -2.3209605988    0.1366473459
H       -1.8629109657    0.0838535057    1.4107928922
H       -1.6074651745   -1.6757777466   -2.6390987108
H        0.0969082073   -1.5213132039   -2.7939595568
H        8.4680212068    3.1967768223   -2.8914358292
H        7.7826413744    3.1606388021   -4.4250564366
29   
torsion grid (0,)
C        3.8713390414    0.4019608485   -2.4865352330
C        5.0634889470    0.4253271676   -0.3645820899
C        5.0555184610    0.6919556659   -3.1542975889
C        6.2561996324    0.7090752173   -1.0284374360
C        3.8688568675    0.2633047641   -1.0843246112
C        0.5557181563   -0.6059311695   -0.2565157044
C        6.2362698545    0.8449485938   -2.4173420189
C       -0.5580999652   -1.1250905108   -0.8934445178
C        0.1819611492   -0.3629835903    1.1489817218
N        2.7260393358   -0.0218992524   -0.2979695276
N        1.7004527417   -0.3478182482   -0.9744268868
N       -1.6301574009   -1.2531414653   -0.0202228952
N       -1.1866589930   -0.7853166078    1.2473887582
N       -0.6478508693   -1.6284272926   -2.1566572486
N        7.7200997858    2.9294605609   -3.3791684436
O        0.7706875938    0.1750272646    2.0687710804
O        8.8746194792    0.8666254270   -2.4054528926
O        7.6370445393    0.7410159336   -4.6573712128
S        7.7562303837    1.2317495866   -3.2805157171
H        2.9427027198    0.2827962141   -3.0337500100
H        5.0332075112    0.3156714271    0.7152725724
H        5.0787323976    0.7884061777   -4.2353216586
H        7.1902025993    0.8106284561   -0.4853982923
H       -2.0169264028   -2.1936953226    0.0346694494
H       -1.8121202661   -0.0987447079    1.6594355944
H       -1.5406302645   -1.5270099289   -2.6263225843
H        0.1635734427   -1.4223385155   -2.7314720274
H        8.4729480005    3.3194558468   -2.8135080609
H        7.8153861298    3.2059354249   -4.3556573408
29   
torsion grid (15,)
C        3.8961249210    0.3637036665   -2.4700122514
C        5.0535857969    0.4804590374   -0.3321950638
C        5.0864071608    0.6471838046   -3.1295763760
C        6.2525552585    0.7581641815   -0.9873459532
C        3.8728324431    0.2756818907   -1.0638705787
C        0.5590523387   -0.6064087114   -0.2519629776
C        6.2528100452    0.8444832058   -2.3803270623
C       -0.5604744409   -1.0998135704   -0.9016177581
C        0.1809755801   -0.3771804160    1.1521718292
N        2.7219385216    0.0031425699   -0.2850686320
N        1.7096644778   -0.3566954306   -0.9641632703
N       -1.6516252770   -1.1604154089   -0.0494776502
N       -1.1424523717   -0.9221838802    1.2676453234
N       -0.6560866133   -1.5613300172   -2.1815407006
N        7.7134420407    2.9167910403   -3.4012372792
O        0.7479262267    0.1716511878    2.0802177396
O        8.8896015119    0.9164505483   -2.3256140626
O        7.6944937282    0.6787183082   -4.5911226785
S        7.7801484757    1.2254071497   -3.2330495492
H        2.9784139359    0.2106665005   -3.0270654002
H        5.0077031088    0.4085725841    0.7502759484
H        5.1254165666    0.7051241489   -4.2129005833
H        7.1762772545    0.8928954256   -0.4340381718
H       -2.1511540199   -2.0483355867   -0.0898334430
H       -1.7638174169   -0.3219425406    1.8057607502
H       -1.5409275830   -1.4163650156   -2.6551764549
H        0.1624000679   -1.3440132635   -2.7425529968
H        8.4432818683    3.3447069285   -2.8328247493
H        7.8296752879    3.1552301452   -4.3854812577
29   
torsion grid (30,)
C        3.8834773423    0.2880571697   -2.5270924220
C        5.0359425139    0.5299699061   -0.3970224296
C        5.0667784921    0.5727911459   -3.1987580330
C        6.2274321460    0.8095206178   -1.0645236525
C        3.8608285404    0.2632478154   -1.1184351291
C        0.5656255911   -0.6473289877   -0.2661748257
C        6.2271279776    0.8344073289   -2.4600967087
C       -0.5740270590   -1.1126242395   -0.9105351700
C        0.2077462764   -0.4489672849    1.1542467486
N        2.7178423057   -0.0047440594   -0.3271143192
N        1.7066821906   -0.3972701651   -0.9907522117
N       -1.6550934365   -1.1034489091   -0.0398822642
N       -1.0578971191   -1.1221306890    1.2765489627
N       -0.7067479721   -1.5180295920   -2.2036230228
N        7.6545658869    2.9051360800   -3.5315007613
O        0.7669407342    0.0952625502    2.0878576119
O        8.8635732025    0.9451333988   -2.4231311652
O        7.6575082938    0.6413737632   -4.6751660102
S        7.7440298535    1.2183064343   -3.3296435153
H        2.9713572068    0.0842586897   -3.0769221565
H        4.9914520102    0.5038651340    0.6875943077
H        5.1058721147    0.5821136174   -4.2835491705
H        7.1467386296    0.9918573243   -0.5174888093
H       -2.2551551301   -1.9221422559   -0.1516288579
H       -1.6597603810   -0.6304202562    1.9372994240
H       -1.6026046163   -1.3593908851   -2.6512299438
H        0.0992468697   -1.2866809421   -2.7771760897
H        8.3920543847    3.3519033325   -2.9880142424
H        7.7469556553    3.1245659844   -4.5226412812
29   
torsion grid (45,)
C        3.9103550225    0.2561479822   -2.5176276089
C        5.0304930612    0.5922887744   -0.3839203834
C        5.0989937598    0.5310240343   -3.1838205282
C        6.2274210779    0.8628234946   -1.0451193830
C        3.8678494959    0.2833268094   -1.1092654793
C        0.5743090412   -0.6342988776   -0.2708273315
C        6.2458860802    0.8355701470   -2.4406198970
C       -0.5791026395   -1.0791223086   -0.9164445708
C        0.2118713166   -0.4847950719    1.1661304594
N        2.7186658312    0.0288744317   -0.3240179114
N        1.7171540997   -0.3911539421   -0.9880125849
N       -1.6514874523   -0.9954082309   -0.0219287393
N       -0.9849269221   -1.2970491819    1.2536480718
N       -0.7404254886   -1.4427965951   -2.2131623891
N        7.6638924655    2.8833807698   -3.5682538165
O        0.7371658420    0.0591427435    2.1149680121
O        8.8800802401    0.9799689131   -2.3739683296
O        7.7070842369    0.5792623042   -4.6285813894
S        7.7692123215    1.2058921664   -3.3039730937
H        3.0090476160    0.0186032343   -3.0716454738
H        4.9721582334    0.6053982492    0.7002704597
H        5.1527926186    0.4996085151   -4.2675716061
H        7.1366548884    1.0776232946   -0.4930225132
H       -2.3297603595   -1.7426531404   -0.1933677239
H       -1.5689565809   -0.9159170083    2.0026867362
H       -1.6487912930   -1.3041044510   -2.6407937592
H        0.0545604105   -1.2180359445   -2.8043020626
H        8.3930416374    3.3569920241   -3.0363687984
H        7.7616158157    3.0673463497   -4.5660607135
29   
torsion grid (60,)
C        3.9301740398    0.1531562118   -2.5132525658
C        4.9791022378    0.6680464843   -0.3787802658
C        5.1269637455    0.4227395146   -3.1659456438
C        6.1835636134    0.9377316579   -1.0261962248
C        3.8454912939    0.2761307202   -1.1109986408
C        0.5377723894   -0.6118961326   -0.3191391032
C        6.2413610791    0.8185771762   -2.4158352755
C       -0.6415214429   -1.0021917139   -0.9789080414
C        0.1847659902   -0.6090227809    1.1611244843
N        2.6877751618    0.0298282116   -0.3389816420
N        1.6828092933   -0.3679257559   -1.0175692698
N       -1.6650035448   -0.8814048322   -0.0150471593
N       -0.9310851951   -1.5442794327    1.1150055746
N       -0.8551751048   -1.2718876445   -2.2815615789
N        7.6095479988    2.8204018316   -3.6807947606
O        0.6739514542   -0.1310304038    2.1559448090
O        8.8622001715    1.0841086740   -2.2822727492
O        7.7855716348    0.4374815005   -4.5276803586
S        7.7750598842    1.1787020377   -3.2619471289
H        3.0551231037   -0.1585886140   -3.0724295664
H        4.8920615844    0.7468139488    0.7007043255
H        5.2131517008    0.3151574121   -4.2427658730
H        7.0699113401    1.2199241853   -0.4672424844
H       -2.4371825964   -1.5174876695   -0.2457723643
H       -1.4964407039   -1.3592643254    1.9529841294
H       -1.7821346802   -1.1567520372   -2.6725966600
H       -0.0761083329   -1.0641309399   -2.8988445201
H        8.2888895259    3.3731900196   -3.1594181323
H        7.7535913173    2.9189048310   -4.6851192420
29   
torsion grid (75,)
C        3.1212629003    0.1340024423   -2.1310503480
C        4.1755637208    0.5591360790    0.0202533669
C        4.3372188273    0.3453116560   -2.7678751094
C        5.4000714586    0.7673385934   -0.6124144967
C        3.0282722668    0.2377543979   -0.7260779272
C       -0.3159402847   -0.5329138557   -0.0003863449
C        5.4669430911    0.6642028403   -2.0030527344
C       -1.4829335510   -1.0146349086   -0.6545020073
C       -0.6997839616   -0.6052336274    1.5414507810
N        1.8509316112    0.0493315065    0.0269161880
N        0.8497387296   -0.3552392113   -0.6624610890
N       -2.4526349474   -0.8403593813    0.3687859319
N       -1.6399837642   -1.7040051801    1.3610768707
N       -1.7154709134   -1.3818115569   -1.9222942659
N        6.8737516757    2.5467796212   -3.3811606684
O       -0.3335951588   -0.0873366878    2.5588242914
O        8.0856106745    0.8880347224   -1.8164987826
O        7.0722897321    0.1261901090   -4.0481964446
S        7.0258380104    0.9416487823   -2.8299577224
H        2.2342423133   -0.1124861283   -2.7038211766
H        4.0835005341    0.6312204852    1.0998173791
H        4.4247706302    0.2573712367   -3.8464641932
H        6.2955663446    0.9923724024   -0.0422455739
H       -3.2775697878   -1.4219498707    0.1651961433
H       -2.2236896528   -1.7165964510    2.2138940254
H       -2.6506535735   -1.3376527812   -2.3076122343
H       -0.9436698022   -1.2504696281   -2.5690652316
H        7.3806587996    3.1744280494   -2.7575280298
H        7.2560767342    2.5950573243   -4.3257496951
