
  -OEChem-12122420533D

 49 53  0     0  0  0  0  0  0999 V2000
    0.8827    1.1937   -4.6144 C   0  0  0  0  0  0  0  0  0  0  0  0
    1.7940    0.4795   -3.6461 C   0  0  0  0  0  0  0  0  0  0  0  0
    1.4446    0.3412   -2.3015 C   0  0  0  0  0  0  0  0  0  0  0  0
    2.2737   -0.3725   -1.4252 C   0  0  0  0  0  0  0  0  0  0  0  0
    3.4470   -0.9133   -1.9687 C   0  0  0  0  0  0  0  0  0  0  0  0
    3.7208   -0.7200   -3.3236 C   0  0  0  0  0  0  0  0  0  0  0  0
    2.9287   -0.0395   -4.1610 N   0  0  0  0  0  0  0  0  0  0  0  0
    1.9777   -0.4752    0.0264 C   0  0  0  0  0  0  0  0  0  0  0  0
    3.0083   -0.1419    0.9208 C   0  0  0  0  0  0  0  0  0  0  0  0
    2.8057   -0.1067    2.2953 C   0  0  0  0  0  0  0  0  0  0  0  0
    1.5328   -0.4063    2.8117 C   0  0  0  0  0  0  0  0  0  0  0  0
    0.4956   -0.7586    1.9466 C   0  0  0  0  0  0  0  0  0  0  0  0
    0.7046   -0.8161    0.5519 C   0  0  0  0  0  0  0  0  0  0  0  0
   -0.4140   -1.2643   -0.2831 C   0  0  0  0  0  0  0  0  0  0  0  0
   -1.7096   -1.0805    0.0551 N   0  0  0  0  0  0  0  0  0  0  0  0
   -2.4016   -1.6489   -0.9434 N   0  5  0  0  0  0  0  0  0  0  0  0
   -1.5540   -2.1685   -1.8371 N   0  0  0  0  0  0  0  0  0  0  0  0
   -0.2913   -1.9361   -1.4479 N   0  0  0  0  0  0  0  0  0  0  0  0
    1.4032   -0.3372    4.2242 N   0  0  0  0  0  0  0  0  0  0  0  0
    0.3205   -0.5894    5.0184 C   0  0  0  0  0  0  0  0  0  0  0  0
   -0.7909   -0.9214    4.6119 O   0  0  0  0  0  0  0  0  0  0  0  0
    0.5732   -0.4234    6.5146 C   0  0  0  0  0  0  0  0  0  0  0  0
   -0.2820   -1.3300    7.3884 C   0  0  0  0  0  0  0  0  0  0  0  0
   -0.6177    0.1306    7.2836 C   0  0  0  0  0  0  0  0  0  0  0  0
    1.9581   -0.0851    6.9760 C   0  0  0  0  0  0  0  0  0  0  0  0
    2.9160   -1.0960    7.1556 C   0  0  0  0  0  0  0  0  0  0  0  0
    4.2225   -0.7792    7.5328 C   0  0  0  0  0  0  0  0  0  0  0  0
    4.6005    0.5516    7.7402 C   0  0  0  0  0  0  0  0  0  0  0  0
    3.6438    1.5517    7.5596 C   0  0  0  0  0  0  0  0  0  0  0  0
    2.3363    1.2508    7.1776 C   0  0  0  0  0  0  0  0  0  0  0  0
    4.0994    3.2329    7.8167 Cl  0  0  0  0  0  0  0  0  0  0  0  0
    0.3287    0.4597   -5.2114 H   0  0  0  0  0  0  0  0  0  0  0  0
    0.1517    1.8185   -4.0939 H   0  0  0  0  0  0  0  0  0  0  0  0
    1.4648    1.8126   -5.3040 H   0  0  0  0  0  0  0  0  0  0  0  0
    0.5159    0.7684   -1.9389 H   0  0  0  0  0  0  0  0  0  0  0  0
    4.1240   -1.5008   -1.3542 H   0  0  0  0  0  0  0  0  0  0  0  0
    4.6273   -1.1410   -3.7606 H   0  0  0  0  0  0  0  0  0  0  0  0
    3.9805    0.1358    0.5220 H   0  0  0  0  0  0  0  0  0  0  0  0
    3.6204    0.1691    2.9635 H   0  0  0  0  0  0  0  0  0  0  0  0
   -0.4834   -1.0092    2.3310 H   0  0  0  0  0  0  0  0  0  0  0  0
    2.2532   -0.0746    4.7057 H   0  0  0  0  0  0  0  0  0  0  0  0
   -0.9241   -2.0276    6.8613 H   0  0  0  0  0  0  0  0  0  0  0  0
    0.1693   -1.6862    8.3098 H   0  0  0  0  0  0  0  0  0  0  0  0
   -0.3994    0.7686    8.1351 H   0  0  0  0  0  0  0  0  0  0  0  0
   -1.4836    0.4010    6.6888 H   0  0  0  0  0  0  0  0  0  0  0  0
    2.6288   -2.1309    6.9903 H   0  0  0  0  0  0  0  0  0  0  0  0
    4.9576   -1.5687    7.6654 H   0  0  0  0  0  0  0  0  0  0  0  0
    5.6132    0.8086    8.0344 H   0  0  0  0  0  0  0  0  0  0  0  0
    1.6123    2.0464    7.0309 H   0  0  0  0  0  0  0  0  0  0  0  0
  1  2  1  0  0  0  0
  1 32  1  0  0  0  0
  1 33  1  0  0  0  0
  1 34  1  0  0  0  0
  2  3  1  0  0  0  0
  2  7  2  0  0  0  0
  3  4  2  0  0  0  0
  3 35  1  0  0  0  0
  4  5  1  0  0  0  0
  4  8  1  0  0  0  0
  5  6  2  0  0  0  0
  5 36  1  0  0  0  0
  6  7  1  0  0  0  0
  6 37  1  0  0  0  0
  8  9  1  0  0  0  0
  8 13  2  0  0  0  0
  9 10  2  0  0  0  0
  9 38  1  0  0  0  0
 10 11  1  0  0  0  0
 10 39  1  0  0  0  0
 11 12  2  0  0  0  0
 11 19  1  0  0  0  0
 12 13  1  0  0  0  0
 12 40  1  0  0  0  0
 13 14  1  0  0  0  0
 14 15  2  0  0  0  0
 14 18  1  0  0  0  0
 15 16  1  0  0  0  0
 16 17  1  0  0  0  0
 17 18  2  0  0  0  0
 19 20  1  0  0  0  0
 19 41  1  0  0  0  0
 20 21  2  0  0  0  0
 20 22  1  0  0  0  0
 22 23  1  0  0  0  0
 22 24  1  0  0  0  0
 22 25  1  0  0  0  0
 23 24  1  0  0  0  0
 23 42  1  0  0  0  0
 23 43  1  0  0  0  0
 24 44  1  0  0  0  0
 24 45  1  0  0  0  0
 25 26  2  0  0  0  0
 25 30  1  0  0  0  0
 26 27  1  0  0  0  0
 26 46  1  0  0  0  0
 27 28  2  0  0  0  0
 27 47  1  0  0  0  0
 28 29  1  0  0  0  0
 28 48  1  0  0  0  0
 29 30  2  0  0  0  0
 29 31  1  0  0  0  0
 30 49  1  0  0  0  0
M  CHG  1  16  -1
M  END
$$$$
