37
1 1 C14H21N2
C                    -4.561570845570    -3.790830413727    -0.738943945997
C                    -3.408764753379    -2.887981558004    -0.382862532434
C                    -2.399816904104    -3.260554684085     0.502742036108
C                    -1.323954363701    -2.397289098653     0.768027641915
C                    -1.239601267317    -1.182169156633     0.062645707442
N                    -2.230808868655    -0.803401683211    -0.763457704566
C                    -3.273940602637    -1.608746198216    -0.957056425074
C                    -0.073697758698    -0.233463957584     0.153176265121
C                     1.339178151748    -0.762648814865    -0.052593488898
C                     0.659212101276     0.037171243522    -1.140345995628
C                    -0.286003121150     0.952248098684     1.083487227285
C                    -0.337463064837    -2.782740249583     1.832621491202
N                    -1.018036859460    -2.788762826001     3.212653287803
C                    -1.391840417808    -1.450857647076     3.750274706227
C                    -2.515711534045    -1.364976249865     4.750084252460
C                    -2.700442429859    -0.836397014735     3.344013555652
H                    -4.353744788286    -4.332037986730    -1.668587716242
H                    -4.749119673532    -4.533975825690     0.040843759823
H                    -5.480179148971    -3.218327379861    -0.893812112372
H                    -2.448341062586    -4.241356983969     0.980140743702
H                    -4.049853191370    -1.231093515965    -1.622764975669
H                     2.144878427300    -0.295270072463     0.507755286374
H                     1.482864565531    -1.822922927080    -0.246100169614
H                     0.331370774613    -0.493958519928    -2.027823380529
H                     0.992443933930     1.054216345513    -1.321446031972
H                     0.553549880011     1.650155611435     1.017236923437
H                    -0.375146430189     0.643213915300     2.130827290661
H                    -1.197109961874     1.491953797970     0.807216733393
H                     0.049178168597    -3.797713289412     1.700488217160
H                     0.495703709326    -2.087478003747     1.907322347637
H                    -1.862126592099    -3.369532544541     3.148170245336
H                    -0.401127454285    -3.254850143171     3.889641351187
H                    -0.511261254731    -0.829833492205     3.869756342723
H                    -3.040865907809    -2.277694620408     5.020602997538
H                    -2.388768588838    -0.665341222234     5.569315208282
H                    -2.701662289165     0.234921560336     3.176680995795
H                    -3.342567589507    -1.393806665694     2.669550773543
