
  -OEChem-12102412483D

 37 39  0     0  0  0  0  0  0999 V2000
   -4.5616   -3.7908   -0.7389 C   0  0  0  0  0  0  0  0  0  0  0  0
   -3.4088   -2.8880   -0.3829 C   0  0  0  0  0  0  0  0  0  0  0  0
   -2.3998   -3.2606    0.5027 C   0  0  0  0  0  0  0  0  0  0  0  0
   -1.3240   -2.3973    0.7680 C   0  0  0  0  0  0  0  0  0  0  0  0
   -1.2396   -1.1822    0.0626 C   0  0  0  0  0  0  0  0  0  0  0  0
   -2.2308   -0.8034   -0.7635 N   0  0  0  0  0  0  0  0  0  0  0  0
   -3.2739   -1.6087   -0.9571 C   0  0  0  0  0  0  0  0  0  0  0  0
   -0.0737   -0.2335    0.1532 C   0  0  0  0  0  0  0  0  0  0  0  0
    1.3392   -0.7626   -0.0526 C   0  0  0  0  0  0  0  0  0  0  0  0
    0.6592    0.0372   -1.1403 C   0  0  0  0  0  0  0  0  0  0  0  0
   -0.2860    0.9522    1.0835 C   0  0  0  0  0  0  0  0  0  0  0  0
   -0.3375   -2.7827    1.8326 C   0  0  0  0  0  0  0  0  0  0  0  0
   -1.0180   -2.7888    3.2127 N   0  3  0  0  0  0  0  0  0  0  0  0
   -1.3918   -1.4509    3.7503 C   0  0  0  0  0  0  0  0  0  0  0  0
   -2.5157   -1.3650    4.7501 C   0  0  0  0  0  0  0  0  0  0  0  0
   -2.7004   -0.8364    3.3440 C   0  0  0  0  0  0  0  0  0  0  0  0
   -4.3537   -4.3320   -1.6686 H   0  0  0  0  0  0  0  0  0  0  0  0
   -4.7491   -4.5340    0.0408 H   0  0  0  0  0  0  0  0  0  0  0  0
   -5.4802   -3.2183   -0.8938 H   0  0  0  0  0  0  0  0  0  0  0  0
   -2.4483   -4.2414    0.9801 H   0  0  0  0  0  0  0  0  0  0  0  0
   -4.0499   -1.2311   -1.6228 H   0  0  0  0  0  0  0  0  0  0  0  0
    2.1449   -0.2953    0.5078 H   0  0  0  0  0  0  0  0  0  0  0  0
    1.4829   -1.8229   -0.2461 H   0  0  0  0  0  0  0  0  0  0  0  0
    0.3314   -0.4940   -2.0278 H   0  0  0  0  0  0  0  0  0  0  0  0
    0.9924    1.0542   -1.3214 H   0  0  0  0  0  0  0  0  0  0  0  0
    0.5535    1.6502    1.0172 H   0  0  0  0  0  0  0  0  0  0  0  0
   -0.3751    0.6432    2.1308 H   0  0  0  0  0  0  0  0  0  0  0  0
   -1.1971    1.4920    0.8072 H   0  0  0  0  0  0  0  0  0  0  0  0
    0.0492   -3.7977    1.7005 H   0  0  0  0  0  0  0  0  0  0  0  0
    0.4957   -2.0875    1.9073 H   0  0  0  0  0  0  0  0  0  0  0  0
   -1.8621   -3.3695    3.1482 H   0  0  0  0  0  0  0  0  0  0  0  0
   -0.4011   -3.2549    3.8896 H   0  0  0  0  0  0  0  0  0  0  0  0
   -0.5113   -0.8298    3.8698 H   0  0  0  0  0  0  0  0  0  0  0  0
   -3.0409   -2.2777    5.0206 H   0  0  0  0  0  0  0  0  0  0  0  0
   -2.3888   -0.6653    5.5693 H   0  0  0  0  0  0  0  0  0  0  0  0
   -2.7017    0.2349    3.1767 H   0  0  0  0  0  0  0  0  0  0  0  0
   -3.3426   -1.3938    2.6696 H   0  0  0  0  0  0  0  0  0  0  0  0
  1  2  1  0  0  0  0
  1 17  1  0  0  0  0
  1 18  1  0  0  0  0
  1 19  1  0  0  0  0
  2  3  1  0  0  0  0
  2  7  2  0  0  0  0
  3  4  2  0  0  0  0
  3 20  1  0  0  0  0
  4  5  1  0  0  0  0
  4 12  1  0  0  0  0
  5  6  2  0  0  0  0
  5  8  1  0  0  0  0
  6  7  1  0  0  0  0
  7 21  1  0  0  0  0
  8  9  1  0  0  0  0
  8 10  1  0  0  0  0
  8 11  1  0  0  0  0
  9 10  1  0  0  0  0
  9 22  1  0  0  0  0
  9 23  1  0  0  0  0
 10 24  1  0  0  0  0
 10 25  1  0  0  0  0
 11 26  1  0  0  0  0
 11 27  1  0  0  0  0
 11 28  1  0  0  0  0
 12 13  1  0  0  0  0
 12 29  1  0  0  0  0
 12 30  1  0  0  0  0
 13 14  1  0  0  0  0
 13 31  1  0  0  0  0
 13 32  1  0  0  0  0
 14 15  1  0  0  0  0
 14 16  1  0  0  0  0
 14 33  1  0  0  0  0
 15 16  1  0  0  0  0
 15 34  1  0  0  0  0
 15 35  1  0  0  0  0
 16 36  1  0  0  0  0
 16 37  1  0  0  0  0
M  CHG  1  13   1
M  END
$$$$
