18   
torsion grid (-165,)
C        0.4761545740   -1.2109836744    1.9630021264
C        0.3890227690   -0.7587068942   -0.5427356882
C        0.2705680182    0.5625169235    0.1672480704
C       -0.2685526355   -0.7028314018    0.8269842220
C       -2.6319234146   -1.1150650678    3.4801479070
N        1.0625522439   -1.5998538690    2.8898720224
N       -1.6921041450   -0.9694213960    0.9185689779
O       -3.9243062139    0.0726655089    1.4699464125
O       -1.8254291029    1.1792061862    2.4212849925
S       -2.5839486279   -0.0196161049    2.0564067654
H       -0.2720867703   -0.9641129747   -1.3801444645
H        1.3587781511   -1.2403947373   -0.6039999919
H        1.1602835398    1.0057944400    0.6006300706
H       -0.4818842252    1.2707906325   -0.1618281887
H       -3.1923749702   -0.5848188487    4.2522867350
H       -3.1395259089   -2.0327913282    3.1848033090
H       -1.6108672774   -1.3083886824    3.8096430247
H       -2.1733377255   -0.8362676913    0.0285767438
18   
torsion grid (-150,)
C        0.4938611411   -1.3477906457    1.9102675360
C        0.3766758028   -0.6909518730   -0.5463842577
C        0.2829772365    0.5692562360    0.2638764193
C       -0.2658286403   -0.7378850493    0.8337450030
C       -2.6018224121   -1.0215125759    3.4919637577
N        1.0902744561   -1.8112790078    2.7958428751
N       -1.6852201316   -0.9970284827    0.9264287477
O       -3.9723282590   -0.0678002968    1.4075717558
O       -1.9476050531    1.2340621441    2.2683416673
S       -2.6281525648   -0.0332142091    1.9907449719
H       -0.2974919683   -0.8197414145   -1.3886709575
H        1.3378719322   -1.1812373281   -0.6557910102
H        1.1828944969    0.9640065506    0.7225745199
H       -0.4652545174    1.3088053551    0.0039215752
H       -3.1803449161   -0.4682328608    4.2339707049
H       -3.0605515768   -1.9850218954    3.2721120812
H       -1.5678334549   -1.1374055874    3.8182620043
H       -2.1711032924   -1.0293080386    0.0319156522
18   
torsion grid (-135,)
C        0.5121410774   -1.4464164933    1.8601436573
C        0.3669060175   -0.6336292944   -0.5477896005
C        0.2973442671    0.5733041689    0.3371930511
C       -0.2597952475   -0.7613620521    0.8368506226
C       -2.5876418211   -0.9470732111    3.4962942268
N        1.1177418453   -1.9704972389    2.7050298237
N       -1.6763344622   -1.0032952752    0.9326072667
O       -4.0005457501   -0.1770378294    1.3650885668
O       -2.0417352854    1.2643337376    2.1559407625
S       -2.6602403218   -0.0459502980    1.9420470927
H       -0.3214399585   -0.7018301466   -1.3854187826
H        1.3205085234   -1.1280713266   -0.6977745206
H        1.2071984843    0.9268581975    0.8097180175
H       -0.4468321603    1.3339891628    0.1356581037
H       -3.1866066560   -0.3808407607    4.2118347861
H       -3.0031170597   -1.9410556796    3.3331248094
H       -1.5481175122   -1.0004042005    3.8219135281
H       -2.1684157017   -1.2133004399    0.0682316349
18   
torsion grid (-120,)
C        0.5026671897   -1.5367058717    1.8140528772
C        0.3653235450   -0.5792909477   -0.5425017605
C        0.3148024182    0.5721635736    0.4114574900
C       -0.2631779149   -0.7821360007    0.8342154945
C       -2.5542180910   -0.8751592110    3.4930194708
N        1.1019703156   -2.1199679631    2.6241617439
N       -1.6798538201   -0.9925949910    0.9143484864
O       -4.0354924075   -0.3050968166    1.3462326898
O       -2.1593044034    1.2900136459    2.0357128661
S       -2.6991186832   -0.0637145030    1.8939679097
H       -0.3288359312   -0.5864321223   -1.3776699696
H        1.3110970151   -1.0784480321   -0.7235033520
H        1.2304212152    0.8782484737    0.9055194623
H       -0.4184765171    1.3541808858    0.2596287264
H       -3.1758931057   -0.3086855361    4.1887812131
H       -2.9117456869   -1.8992881128    3.3893729103
H       -1.5095551595   -0.8510504211    3.8055366123
H       -2.1695916995   -1.3683150293    0.1083601753
18   
torsion grid (-105,)
C        0.4705510355   -1.5370351951    1.8108356505
C        0.3776406751   -0.5653394324   -0.5478321954
C        0.3294944474    0.5797692469    0.4130576741
C       -0.2697829792   -0.7686107042    0.8210090993
C       -2.5379661972   -0.8743916241    3.4840227289
N        1.0417281833   -2.1352812418    2.6305339821
N       -1.6896165032   -0.9277880217    0.8741367006
O       -4.0509181140   -0.3235654441    1.3618649131
O       -2.1875702973    1.3005462038    2.0327945050
S       -2.7113833813   -0.0580555938    1.8882099412
H       -0.3096075804   -0.5611272620   -1.3881261025
H        1.3206014401   -1.0733031671   -0.7189604148
H        1.2429657999    0.8707953350    0.9199255071
H       -0.3948674559    1.3698668302    0.2601404015
H       -3.1717086597   -0.3290737058    4.1858499218
H       -2.8701065853   -1.9071463068    3.3785985171
H       -1.4934457774   -0.8254758333    3.7936114572
H       -2.1749897717   -1.4870630636    0.1810207590
18   
torsion grid (-90,)
C        0.4093380727   -1.5149352037    1.8224969960
C        0.3943466022   -0.5689910149   -0.5523870670
C        0.3432719902    0.5861037167    0.3966408744
C       -0.2886852927   -0.7458135363    0.8031015466
C       -2.5073471682   -0.8925529754    3.4701257886
N        0.9369827301   -2.1230222764    2.6640707991
N       -1.7148531153   -0.8463882097    0.8103288413
O       -4.0700575674   -0.3109239128    1.4025635951
O       -2.1967404326    1.3141670452    2.0546723848
S       -2.7189879965   -0.0421393291    1.8944112103
H       -0.2760097776   -0.5631457078   -1.4057106963
H        1.3326690171   -1.0941641385   -0.6949023048
H        1.2494617446    0.8674339560    0.9215741035
H       -0.3655454883    1.3852418987    0.2190604249
H       -3.1605903835   -0.3877125951    4.1844050761
H       -2.8044591632   -1.9338992158    3.3437302902
H       -1.4658018117   -0.8140574728    3.7819037010
H       -2.1759736811   -1.5674800079    0.2646074822
18   
torsion grid (-75,)
C        0.3510954349   -1.5508742453    1.8034079911
C        0.4083777446   -0.5508252456   -0.5447807602
C        0.3424599570    0.5872852064    0.4235534259
C       -0.3111993739   -0.7430697785    0.7913416132
C       -2.4612787429   -0.8675657095    3.4554679575
N        0.8496363678   -2.1986645919    2.6331915584
N       -1.7423555802   -0.8147989474    0.7482612059
O       -4.0941789696   -0.3480432272    1.4298429099
O       -2.2424194063    1.3300703780    2.0061710199
S       -2.7361526199   -0.0395217007    1.8757777486
H       -0.2425003016   -0.5257728454   -1.4123496857
H        1.3464001684   -1.0806329643   -0.6717896631
H        1.2367934124    0.8511511474    0.9770724809
H       -0.3549416986    1.3955094091    0.2418400447
H       -3.1329683538   -0.3886430342    4.1705803080
H       -2.7080253243   -1.9238575534    3.3447707650
H       -1.4228998528   -0.7338337225    3.7573397497
H       -2.1648245827   -1.6501915545    0.3509943762
18   
torsion grid (-60,)
C        0.2924100813   -1.6599684982    1.7451369646
C        0.4218733953   -0.5016225589   -0.5186889892
C        0.3267975971    0.5768966705    0.5131387299
C       -0.3373518410   -0.7700501952    0.7839084879
C       -2.3858300186   -0.7803870383    3.4351037971
N        0.7623012062   -2.3860714640    2.5254502523
N       -1.7706147540   -0.8357893945    0.6878270118
O       -4.1210423319   -0.4708270348    1.4486994460
O       -2.3601575303    1.3431792288    1.8639366490
S       -2.7696880522   -0.0592869561    1.8248336214
H       -0.2064452290   -0.4262972874   -1.3995867985
H        1.3639152116   -1.0235809637   -0.6488149479
H        1.2042031659    0.8064444663    1.1076035407
H       -0.3640124226    1.3961818752    0.3571993805
H       -3.0628206379   -0.3039044582    4.1468741683
H       -2.5653148303   -1.8550454758    3.3943226287
H       -1.3495851975   -0.5622722006    3.6913610700
H       -2.1576195335   -1.7398776946    0.4223880336
18   
torsion grid (-45,)
C        0.2457758426   -1.7795060250    1.6691120134
C        0.4308775999   -0.4451324342   -0.4811492360
C        0.3029251196    0.5572793340    0.6216171651
C       -0.3625044929   -0.8053624444    0.7802743180
C       -2.3113702956   -0.6758820381    3.4032295151
N        0.6959361430   -2.5829076435    2.3825254889
N       -1.7976408002   -0.8844686040    0.6375917343
O       -4.1417800363   -0.5936666140    1.4761950521
O       -2.4778356639    1.3390764679    1.6995643403
S       -2.8029971838   -0.0843944011    1.7683779701
H       -0.1778273623   -0.3097614481   -1.3683834025
H        1.3787180789   -0.9533349456   -0.6232071258
H        1.1630064956    0.7452056815    1.2550376098
H       -0.3825269583    1.3870614604    0.5007259726
H       -2.9806918801   -0.1873841167    4.1140243136
H       -2.4337372973   -1.7586232845    3.4416396944
H       -1.2782377424   -0.3873768164    3.5955084451
H       -2.1490712878   -1.8331011078    0.5080091775
18   
torsion grid (-30,)
C        0.2386714289   -1.8985831158    1.5735084136
C        0.4270305256   -0.3829730135   -0.4392441571
C        0.2790995804    0.5267747136    0.7390770291
C       -0.3757014645   -0.8494508205    0.7826802485
C       -2.2631070749   -0.5626772267    3.3675358608
N        0.6952341844   -2.7666634136    2.2021251823
N       -1.8131720315   -0.9592829017    0.6105721860
O       -4.1521409078   -0.7003784709    1.4954428863
O       -2.5757555806    1.3137467846    1.5278893344
S       -2.8302066490   -0.1143305862    1.7100622862
H       -0.1781982602   -0.1821178244   -1.3163237652
H        1.3816328860   -0.8676868642   -0.6140896692
H        1.1310149532    0.6679405572    1.3956498874
H       -0.4059861973    1.3628700897    0.6703264871
H       -2.9125947280   -0.0305012902    4.0651136411
H       -2.3606714917   -1.6409761715    3.4974184687
H       -1.2294315414   -0.2399524628    3.4922316627
H       -2.1346993530   -1.9280369626    0.6207170631
18   
torsion grid (-15,)
C        0.2798648448   -2.0271043406    1.4405232216
C        0.4006005597   -0.3099539759   -0.3959383941
C        0.2712740315    0.4721093381    0.8743729382
C       -0.3697720772   -0.9095112929    0.7863115081
C       -2.2544775099   -0.4232532895    3.3340503651
N        0.7704276726   -2.9508029682    1.9535552134
N       -1.8131079475   -1.0665820773    0.6242761939
O       -4.1530514878   -0.7951984875    1.5061140841
O       -2.6460343993    1.2614545884    1.3272239263
S       -2.8493562235   -0.1504564984    1.6475737717
H       -0.2295072526   -0.0235948761   -1.2308917363
H        1.3556000702   -0.7597525729   -0.6456081240
H        1.1356297677    0.5499234501    1.5255951374
H       -0.4126818342    1.3118064206    0.8927918588
H       -2.9132790166    0.1511792714    3.9879640727
H       -2.3198338590   -1.4874398734    3.5640049187
H       -1.2297446158   -0.0605376855    3.4156123040
H       -2.1015324444   -2.0345641100    0.7731617865
18   
torsion grid (0,)
C        0.1804526105   -0.3179986857    2.3427925241
C        0.4583812658   -1.2903767578    0.0097694703
C        0.3036878306    0.1980998499   -0.1148400405
C       -0.3916442599   -0.5335051986    1.0303324634
C       -2.0986369001   -3.3543104793    1.2775438470
N        0.6189798471   -0.1323561767    3.4056706904
N       -1.8583403966   -0.5580334105    1.0574605893
O       -2.3277250282   -2.0035808030   -0.9941730320
O       -4.0955235154   -1.6654909340    0.8247566881
S       -2.7121771369   -1.8878276778    0.4125072793
H       -0.0664530514   -1.9040366949   -0.7118849162
H        1.3963575373   -1.6888381310    0.3826559281
H        1.1394043411    0.8433871619    0.1337036291
H       -0.3742569767    0.5611988132   -0.8799944689
H       -2.6183780750   -4.2108200711    0.8441704050
H       -1.0236846979   -3.4430803053    1.1202958169
H       -2.3395070345   -3.2582167400    2.3370722005
H       -2.2231304679   -0.4185489783    1.9995085551
18   
torsion grid (15,)
C        0.0922187659   -0.5893406266    2.3021041943
C        0.4303404118   -1.1923787428   -0.1654518538
C        0.3656666732    0.2980745065   -0.0374304656
C       -0.4170235113   -0.5802213982    0.9457821221
C       -2.0551511458   -3.2862442409    1.4682407435
N        0.4657595673   -0.5777291925    3.4054664912
N       -1.8743858884   -0.5402254636    0.8531250525
O       -2.3019555350   -2.2948187647   -0.9761744036
O       -4.0908961649   -1.7254593264    0.7583140102
S       -2.6984308705   -1.9795525800    0.3952736618
H       -0.1159599410   -1.6624441508   -0.9740433395
H        1.3327126389   -1.7017349808    0.1563304131
H        1.2253678517    0.8334552537    0.3511018179
H       -0.2608895016    0.8378548624   -0.7390320910
H       -2.5801140479   -4.2007089806    1.1858118473
H       -0.9842495655   -3.3959533532    1.2967028792
H       -2.2678671224   -3.0277798349    2.5063123911
H       -2.2973367227   -0.2791282057    1.7449141585
18   
torsion grid (30,)
C        0.0789414253   -0.7695520888    2.2443964984
C        0.4385638574   -1.0954039018   -0.2744410792
C        0.3783004431    0.3719936063    0.0103338461
C       -0.4138362786   -0.6043123659    0.8903665540
C       -2.0830024151   -3.2554395590    1.6056643857
N        0.4341090404   -0.8896527086    3.3473938438
N       -1.8588799493   -0.5755136321    0.7521254453
O       -2.2132173062   -2.4877145430   -0.9234987363
O       -4.0762505881   -1.7576395907    0.6698708500
S       -2.6704960276   -2.0486800975    0.3938770082
H       -0.1145654713   -1.4862496696   -1.1196654197
H        1.3386520551   -1.6389741969   -0.0077342275
H        1.2362740444    0.8567936267    0.4638163272
H       -0.2392705665    0.9902221407   -0.6317955754
H       -2.6027228877   -4.1888475730    1.3813827351
H       -1.0068600610   -3.3847843673    1.4900258482
H       -2.3353889146   -2.9057420532    2.6072272977
H       -2.3225445077   -0.1948382454    1.5780020277
18   
torsion grid (45,)
C        0.1096010234   -0.9062917456    2.1834638805
C        0.4597805871   -1.0015326639   -0.3522021934
C        0.3701493226    0.4371982506    0.0467638776
C       -0.3943321503   -0.6200741134    0.8518807570
C       -2.1455703124   -3.2430046403    1.7163977389
N        0.4732455124   -1.1311283182    3.2671018669
N       -1.8306782284   -0.6306918537    0.7002569602
O       -2.1031154900   -2.6392206434   -0.8573142855
O       -4.0509981003   -1.7863241285    0.5683064877
S       -2.6358103851   -2.1102849978    0.3969603525
H       -0.0977640553   -1.3434442067   -1.2154794609
H        1.3735463386   -1.5444764994   -0.1364888295
H        1.2201162173    0.9019763116    0.5350223832
H       -0.2612723223    1.0929776998   -0.5425528056
H       -2.6908497494   -4.1711510110    1.5345607656
H       -1.0712697898   -3.4174171057    1.6613606503
H       -2.4281112251   -2.8131626886    2.6777434507
H       -2.3288613009   -0.1382828650    1.4415660330
18   
torsion grid (60,)
C        0.1783344891   -1.0215017881    2.1172821775
C        0.4799753149   -0.9107176940   -0.4164008459
C        0.3504499005    0.4945805546    0.0788165362
C       -0.3638783961   -0.6359522028    0.8250384141
C       -2.2331602759   -3.2341092544    1.8151879620
N        0.5770978521   -1.3376661051    3.1651089321
N       -1.7936860030   -0.6936098851    0.6831031349
O       -1.9769502516   -2.7730280964   -0.7733310591
O       -4.0135643909   -1.8136080481    0.4495564230
S       -2.5959355771   -2.1675336916    0.4041197947
H       -0.0863973649   -1.2172826895   -1.2870459304
H        1.4150934966   -1.4350591802   -0.2533709028
H        1.1935416651    0.9538911440    0.5838142325
H       -0.3091926055    1.1687892756   -0.4566631384
H       -2.7877394753   -4.1587327599    1.6434821523
H       -1.1627433896   -3.4338919462    1.8518449909
H       -2.5754847140   -2.7443666769    2.7271824199
H       -2.3279543823   -0.1045361749    1.3196223358
18   
torsion grid (75,)
C        0.2562208633   -1.1145329545    2.0536736239
C        0.4917368329   -0.8338056449   -0.4645840787
C        0.3282125336    0.5379038145    0.1089999268
C       -0.3335178041   -0.6513446822    0.8074363254
C       -2.3195487380   -3.2228162083    1.8932170715
N        0.6980568422   -1.5061201992    3.0577439344
N       -1.7590844137   -0.7531868285    0.6951280240
O       -1.8546274156   -2.8793897951   -0.6843638226
O       -3.9695255741   -1.8477908073    0.3355589663
S       -2.5568897883   -2.2174820287    0.4134820052
H       -0.0845336091   -1.1130821909   -1.3378131906
H        1.4462982131   -1.3350563776   -0.3488711158
H        1.1661314053    0.9976363489    0.6220864221
H       -0.3605551351    1.2199233718   -0.3782329698
H       -2.8685382622   -4.1507383203    1.7214881002
H       -1.2571864649   -3.4257831457    2.0252430791
H       -2.7292716608   -2.6871034941    2.7499726525
H       -2.3255719324   -0.0815660771    1.2071826752
18   
torsion grid (90,)
C        0.3212608485   -1.1413807523    2.0362159587
C        0.4902674783   -0.8099981714   -0.4764046810
C        0.3119694294    0.5502657652    0.1196801756
C       -0.3106301130   -0.6582690651    0.8174915537
C       -2.3681692960   -3.2299295710    1.9171037231
N        0.7990473423   -1.5578581891    3.0132989038
N       -1.7328534879   -0.7905035944    0.7551659808
O       -1.8116739347   -2.9086110212   -0.6434701783
O       -3.9425401330   -1.8346664787    0.2954192595
S       -2.5402730207   -2.2294924321    0.4270146708
H       -0.0991487078   -1.0898770902   -1.3406025605
H        1.4571655602   -1.2930043115   -0.3886147713
H        1.1506917766    1.0210659875    0.6211402290
H       -0.3979260415    1.2263450128   -0.3456623608
H       -2.8961449690   -4.1657731714    1.7241686301
H       -1.3104264807   -3.4179748199    2.1015003123
H       -2.8247924044   -2.6929483606    2.7488475923
H       -2.3280179545   -0.0417249557    1.0950551914
18   
torsion grid (105,)
C        0.3796728056   -1.1159017568    2.0554935343
C        0.4762923238   -0.8243780345   -0.4661969088
C        0.2976275518    0.5416246350    0.1157728431
C       -0.2934742474   -0.6623094094    0.8474699683
C       -2.3957958952   -3.2530991576    1.9046263009
N        0.8995730812   -1.5118571412    3.0193279450
N       -1.7155954388   -0.8080036377    0.8602289622
O       -1.8086233770   -2.8808865248   -0.6401651324
O       -3.9286225317   -1.7876250156    0.2926422489
S       -2.5365240443   -2.2145549660    0.4401614165
H       -0.1293236930   -1.1229622671   -1.3126043254
H        1.4504440647   -1.2955921080   -0.3953339891
H        1.1423557335    1.0303363348    0.5891584817
H       -0.4285269542    1.2052471382   -0.3432902258
H       -2.9045195937   -4.1909615601    1.6739762831
H       -1.3397957888   -3.4307310317    2.1109210285
H       -2.8794662845   -2.7405590364    2.7361180165
H       -2.3178918198   -0.0021216803    0.9890411815
18   
torsion grid (120,)
C        0.4147382772   -1.1194083691    2.0570835636
C        0.4588562063   -0.8237795952   -0.4649092302
C        0.2866049339    0.5390530803    0.1278585084
C       -0.2864000436   -0.6693560460    0.8646694131
C       -2.4135666448   -3.2597019235    1.9102487310
N        0.9667218274   -1.5133606439    3.0035253080
N       -1.7118247365   -0.8121411589    0.9380444619
O       -1.7884533572   -2.8733027380   -0.6250450318
O       -3.9135203416   -1.7730544753    0.2768999830
S       -2.5276253232   -2.2120720341    0.4522109088
H       -0.1593936252   -1.1188926600   -1.3033447430
H        1.4357304038   -1.2922228792   -0.4156127178
H        1.1375511840    1.0300779665    0.5874125405
H       -0.4470141356    1.2047977010   -0.3171202907
H       -2.9050927508   -4.2011546811    1.6582165214
H       -1.3607627809   -3.4267779671    2.1410265963
H       -2.9228947072   -2.7570380369    2.7320314833
H       -2.2958484940    0.0139992414    0.8541516234
18   
torsion grid (135,)
C        0.4414586886   -1.2010459580    1.9974601557
C        0.4367762462   -0.7620665091   -0.5029229477
C        0.2816504657    0.5663042492    0.1724025275
C       -0.2789550226   -0.6814006469    0.8471227374
C       -2.4576194462   -3.2330806321    1.9732403314
N        1.0109179379   -1.6520271662    2.9071733504
N       -1.7080572717   -0.8222992312    0.9571580473
O       -1.6730786001   -2.9540105693   -0.5350534576
O       -3.8606671319   -1.8386148698    0.1793000587
S       -2.4854944695   -2.2561473119    0.4640021742
H       -0.1996017651   -1.0038913272   -1.3452974387
H        1.4130147325   -1.2343632947   -0.5073033419
H        1.1437937227    1.0275671086    0.6417303565
H       -0.4548693313    1.2628560302   -0.2180603288
H       -2.9279550361   -4.1884270743    1.7335027999
H       -1.4202358315   -3.3803027484    2.2759678433
H       -3.0206308167   -2.6965538000    2.7363927866
H       -2.2726411787   -0.0168314681    0.7005319749
18   
torsion grid (150,)
C        0.4406430443   -1.2910363046    1.9309787427
C        0.4175105447   -0.6977620049   -0.5342538273
C        0.2834920057    0.5908731995    0.2239277177
C       -0.2816644812   -0.6896741870    0.8243549019
C       -2.4820052734   -3.1978116043    2.0359341179
N        1.0122536977   -1.8062066980    2.8042711565
N       -1.7163032573   -0.8199261854    0.9485777865
O       -1.5804613534   -3.0286400515   -0.4483047210
O       -3.8158194852   -1.9198163178    0.1071353790
S       -2.4501390175   -2.3003966686    0.4787969761
H       -0.2295354711   -0.8789655038   -1.3844527136
H        1.3889077587   -1.1775106145   -0.5823710561
H        1.1564081629    1.0148767766    0.7081580373
H       -0.4477519015    1.3200076178   -0.1139878808
H       -2.9317634944   -4.1689344019    1.8214025740
H       -1.4588504808   -3.3179690600    2.3933480491
H       -3.0867319043   -2.6301885001    2.7424912685
H       -2.2503832020   -0.0652547106    0.5213411207
18   
torsion grid (165,)
C        0.4462793102   -1.4008972694    1.8311181570
C        0.3985928072   -0.6096021565   -0.5739262397
C        0.2859764680    0.6191647096    0.2869932907
C       -0.2794959964   -0.6997188167    0.7895155113
C       -2.5263665281   -3.1491954287    2.1109970028
N        1.0212249959   -1.9866503370    2.6560425281
N       -1.7192944684   -0.8263972098    0.9196163225
O       -1.4579936458   -3.1277000164   -0.3166614918
O       -3.7439577903   -2.0326836663    0.0150186784
S       -2.4003883467   -2.3604602131    0.5012123679
H       -0.2612418191   -0.7154792787   -1.4280569172
H        1.3656027506   -1.0891041810   -0.6782512849
H        1.1714022251    0.9973102690    0.7862157834
H       -0.4433356273    1.3793928931    0.0211580764
H       -2.9587600793   -4.1354675355    1.9327773511
H       -1.5272851522   -3.2382347666    2.5380870447
H       -3.1781488207   -2.5402961930    2.7367234358
H       -2.2250043905   -0.1483160223    0.3487680126
18   
torsion grid (180,)
C        0.4435339695   -1.0670617920    2.0082276390
C        0.3981006473   -0.8342322967   -0.5272715229
C        0.2777889362    0.5446272574    0.0700504767
C       -0.2790603791   -0.6598737222    0.8201743902
C       -2.6451626680   -1.2083952049    3.4585402860
N        1.0248399356   -1.3890023955    2.9632901824
N       -1.7133816992   -0.9040058198    0.9000391645
O       -3.9001324001    0.1822913285    1.5594776964
O       -1.7554740150    1.1335557045    2.5727469960
S       -2.5605791383   -0.0057905882    2.1258566149
H       -0.2522352713   -1.1063098723   -1.3538028481
H        1.3675008304   -1.3206327873   -0.5347871801
H        1.1647931193    1.0188685391    0.4752816040
H       -0.4627999244    1.2278236817   -0.3331674920
H       -3.2051487461   -0.7271014400    4.2623942003
H       -3.1678484257   -2.0891717130    3.0869806291
H       -1.6324035337   -1.4455843301    3.7840987292
H       -2.1813129588   -0.6022835287    0.0425634805
