8    
torsion grid (-165,)
C        0.0646321649   -0.5653851237    0.5033158026
C       -0.0227406095    0.5468579278   -0.5293962098
Cl       1.3529404857   -0.1567645125    1.7155905014
Cl      -1.5697145456    0.3755540980   -1.4641933931
H        0.3214722009   -1.5248126180    0.0549903930
H       -0.8673396810   -0.6565562661    1.0600561301
H       -0.0568923493    1.5244144417   -0.0497500523
H        0.8018028508    0.5141529984   -1.2410998646
8    
torsion grid (-150,)
C        0.0876768442   -0.5773244556    0.4931302349
C       -0.0157601769    0.5312501897   -0.5514194581
Cl       1.2142664682   -0.0750384456    1.8255392123
Cl      -1.6526621146    0.4971583593   -1.3364027105
H        0.4638052871   -1.5101864384    0.0740604330
H       -0.8765878511   -0.7527489767    0.9675699465
H        0.0714660001    1.5113275971   -0.0850365042
H        0.7319560600    0.4330231158   -1.3379278468
8    
torsion grid (-135,)
C        0.1063513028   -0.5846290369    0.4881936921
C       -0.0139354362    0.5197475032   -0.5684728952
Cl       1.0540415376   -0.0103218481    1.9260435876
Cl      -1.7112612217    0.6332053145   -1.2021687153
H        0.6130560040   -1.4685313669    0.1015079521
H       -0.8723060267   -0.8689217699    0.8703542345
H        0.2109791626    1.4955734047   -0.1420735289
H        0.6372351944    0.3413387450   -1.4238710198
8    
torsion grid (-120,)
C        0.1213740070   -0.5865772730    0.4855034519
C       -0.0157944951    0.5096185364   -0.5799036723
Cl       0.8780435332    0.0449934607    2.0090976345
Cl      -1.7463534061    0.7715579749   -1.0587806763
H        0.7634435138   -1.3963977128    0.1383795625
H       -0.8473959624   -0.9948409852    0.7668280251
H        0.3541514170    1.4672828813   -0.2188537056
H        0.5166919095    0.2418240633   -1.4927573125
8    
torsion grid (-105,)
C        0.1359404070   -0.5849385042    0.4812940747
C       -0.0186125472    0.4972010455   -0.5882970808
Cl       0.6927550223    0.0926686336    2.0681595429
Cl      -1.7564784032    0.9031680922   -0.9082173152
H        0.9015733097   -1.3028013507    0.1828865699
H       -0.7979855209   -1.1140279895    0.6628566852
H        0.4853889371    1.4207314961   -0.3086682198
H        0.3815793122    0.1454595225   -1.5405009496
8    
torsion grid (-90,)
C        0.1520846617   -0.5844849107    0.4733770495
C       -0.0185689789    0.4818956933   -0.5977451401
Cl       0.5019132882    0.1267031346    2.1018977185
Cl      -1.7382417124    1.0274927718   -0.7567974462
H        1.0149789252   -1.2088593770    0.2317969356
H       -0.7325368597   -1.2131686129    0.5669498793
H        0.5932333570    1.3608816682   -0.3986575689
H        0.2512978358    0.0670005783   -1.5713081205
8    
torsion grid (-75,)
C        0.1722261678   -0.5844303302    0.4664096961
C       -0.0202873508    0.4649385142   -0.6105407852
Cl       0.3133145147    0.1408316809    2.1172504589
Cl      -1.6953615924    1.1470561087   -0.6158338908
H        1.1071357795   -1.1200975823    0.2844620285
H       -0.6545420991   -1.2944694048    0.4889674068
H        0.6731269460    1.2973253053   -0.4900461358
H        0.1285481512    0.0063066536   -1.5911554715
8    
torsion grid (-60,)
C        0.1960767909   -0.5805295616    0.4663439097
C       -0.0305423399    0.4485642100   -0.6250593972
Cl       0.1365969105    0.1241461604    2.1283043725
Cl      -1.6344453905    1.2699854578   -0.5026645516
H        1.1862233990   -1.0250649602    0.3397503089
H       -0.5605802617   -1.3652918615    0.4317334301
H        0.7264242321    1.2330425424   -0.5907809549
H        0.0044071765   -0.0473910417   -1.5981138104
8    
torsion grid (-45,)
C        0.2190379968   -0.5728138393    0.4735409206
C       -0.0480486815    0.4358438276   -0.6381080236
Cl      -0.0264511622    0.0712976538    2.1407574851
Cl      -1.5568915161    1.4012719649   -0.4234056933
H        1.2528181906   -0.9175767904    0.4004588315
H       -0.4509447176   -1.4292410751    0.3864310223
H        0.7617543381    1.1639906942   -0.7009871274
H       -0.1271139312   -0.0953114900   -1.5891741081
8    
torsion grid (-30,)
C        0.2389219058   -0.5644122598    0.4839562077
C       -0.0672622029    0.4268271998   -0.6492424113
Cl      -0.1789993355   -0.0071419389    2.1469605598
Cl      -1.4626472187    1.5332033881   -0.3670646863
H        1.3044191304   -0.8001152305    0.4738744735
H       -0.3276301611   -1.4855311568    0.3433669860
H        0.7862464589    1.0846732300   -0.8164792178
H       -0.2688880600   -0.1300422864   -1.5658586045
8    
torsion grid (-15,)
C        0.2559701106   -0.5558691065    0.4940477777
C       -0.0853899996    0.4192745193   -0.6581758605
Cl      -0.3237946329   -0.0989605451    2.1384363419
Cl      -1.3522117838    1.6565459862   -0.3216817236
H        1.3382881201   -0.6701250833    0.5613009265
H       -0.1870514500   -1.5322872901    0.2979431304
H        0.8008586210    0.9890470606   -0.9375327396
H       -0.4225084685   -0.1501645954   -1.5248245457
8    
torsion grid (0,)
C        0.2708615467   -0.5463389702    0.5005603521
C       -0.1008417528    0.4102584666   -0.6640873871
Cl      -0.4622693467   -0.1976263567    2.1096511922
Cl      -1.2251480632    1.7656809929   -0.2806557012
H        1.3495245401   -0.5321634988    0.6560313386
H       -0.0316659032   -1.5630246788    0.2501356295
H        0.8024465182    0.8757666698   -1.0581148604
H       -0.5787470221   -0.1550916791   -1.4640072564
8    
torsion grid (15,)
C        0.2851820557   -0.5340101389    0.5026313266
C       -0.1146358860    0.3974467150   -0.6667230587
Cl      -0.5920336972   -0.2989797626    2.0595144472
Cl      -1.0840172527    1.8566060611   -0.2427120463
H        1.3383746910   -0.3939111510    0.7460825032
H        0.1300226208   -1.5718859830    0.2063417291
H        0.7856524485    0.7516922101   -1.1697531245
H       -0.7243844632   -0.1494970051   -1.3858684694
8    
torsion grid (30,)
C        0.3002352569   -0.5186447164    0.5019712575
C       -0.1285769335    0.3810609215   -0.6672560140
Cl      -0.7098942016   -0.4034223583    1.9909818971
Cl      -0.9317514573    1.9294829732   -0.2110869938
H        1.3101053265   -0.2630740746    0.8245433913
H        0.2868063609   -1.5596932334    0.1748938560
H        0.7487237655    0.6295365777   -1.2668769512
H       -0.8514876005   -0.1377851443   -1.2976571358
8    
torsion grid (45,)
C        0.3162687530   -0.5003756821    0.5019340957
C       -0.1450701468    0.3632136644   -0.6667256958
Cl      -0.8113850767   -0.5148808852    1.9102330395
Cl      -0.7718543244    1.9873557565   -0.1929920975
H        1.2703490414   -0.1432162820    0.8920040288
H        0.4322324758   -1.5310367323    0.1597439838
H        0.6937819000    0.5178638783   -1.3487919527
H       -0.9601621054   -0.1214627720   -1.2058920947
8    
torsion grid (60,)
C        0.3313994295   -0.4794074210    0.5060050013
C       -0.1658643034    0.3474414248   -0.6647212219
Cl      -0.8886953263   -0.6420233502    1.8278015113
Cl      -0.6091534440    2.0361552357   -0.2021613531
H        1.2206930974   -0.0341999684    0.9538070143
H        0.5663911790   -1.4882473439    0.1580843772
H        0.6242391871    0.4157915507   -1.4164476387
H       -1.0548493024   -0.0980491821   -1.1128543833
8    
torsion grid (75,)
C        0.3400800917   -0.4589980668    0.5156061573
C       -0.1881414465    0.3395063760   -0.6597370655
Cl      -0.9381462939   -0.7943473644    1.7504598193
Cl      -0.4439006876    2.0822350879   -0.2490433012
H        1.1562434729    0.0586760165    1.0196904876
H        0.6895851006   -1.4321204929    0.1620819711
H        0.5460988739    0.3183295539   -1.4687754395
H       -1.1376585941   -0.0558201647   -1.0207693219
8    
torsion grid (90,)
C        0.3420036030   -0.4425646034    0.5290395379
C       -0.2084870829    0.3399745980   -0.6534085427
Cl      -0.9606283230   -0.9662096334    1.6732416142
Cl      -0.2757005308    2.1204059399   -0.3281408601
H        1.0714192714    0.1348736941    1.0956716087
H        0.8089712238   -1.3628034351    0.1714188372
H        0.4573054829    0.2209447026   -1.5109299600
H       -1.2107231276    0.0128396827   -0.9273789282
8    
torsion grid (105,)
C        0.3430849985   -0.4301455824    0.5420061529
C       -0.2257572068    0.3424081892   -0.6490090800
Cl      -0.9589477033   -1.1415990269    1.5840619615
Cl      -0.1047756616    2.1374356982   -0.4241197861
H        0.9612767965    0.2006156576    1.1784788002
H        0.9363235040   -1.2768335120    0.1930714425
H        0.3468291179    0.1194916839   -1.5506858028
H       -1.2738733283    0.1060878380   -0.8242903810
8    
torsion grid (120,)
C        0.3452440912   -0.4195082732    0.5513263005
C       -0.2396779107    0.3425617817   -0.6457122231
Cl      -0.9374446238   -1.3100303566    1.4755716796
Cl       0.0691530624    2.1265650135   -0.5252744461
H        0.8256698971    0.2538840869    1.2584859237
H        1.0656459068   -1.1708471482    0.2271846675
H        0.2144920699    0.0162711486   -1.5815651519
H       -1.3189219761    0.2185646929   -0.7105034430
8    
torsion grid (135,)
C        0.0188966284   -0.5059720202    0.5803504118
C       -0.0992326002    0.5995844372   -0.4753140468
Cl       1.7155191512   -0.6218895675    1.2154928440
Cl      -1.0462185447    0.0277358936   -1.9146117942
H       -0.2066757151   -1.4811267200    0.1527644755
H       -0.6328730473   -0.3277242269    1.4353263558
H       -0.6053373358    1.4836467786   -0.0882072949
H        0.8800819804    0.8832063708   -0.8562876442
8    
torsion grid (150,)
C        0.0197969130   -0.5179680328    0.5628564951
C       -0.0796333271    0.5927727073   -0.4798106835
Cl       1.6554091125   -0.4886152592    1.3506934233
Cl      -1.2049351088    0.0952277092   -1.8150711311
H       -0.0685648130   -1.4970414344    0.0945752313
H       -0.7290444071   -0.4197455343    1.3482984543
H       -0.4546211852    1.5256251092   -0.0596909932
H        0.8857533325    0.7672056806   -0.9523374892
8    
torsion grid (165,)
C        0.0287816701   -0.5324923686    0.5417747747
C       -0.0585926485    0.5797498237   -0.4909379247
Cl       1.5757558562   -0.3611874195    1.4765713014
Cl      -1.3469013367    0.1711279814   -1.7032118666
H        0.0629349399   -1.5100501027    0.0621316243
H       -0.7957634075   -0.4997862455    1.2534766933
H       -0.3154317526    1.5391766896   -0.0426102756
H        0.8733771961    0.6709225871   -1.0476810197
8    
torsion grid (180,)
C        0.0442284192   -0.5492593668    0.5205288400
C       -0.0382023850    0.5636375143   -0.5081354396
Cl       1.4743213856   -0.2506425073    1.5982704259
Cl      -1.4682953413    0.2650206815   -1.5858770388
H        0.1902377512   -1.5211979287    0.0499431006
H       -0.8406152731   -0.5754590900    1.1559647530
H       -0.1842442299    1.5356395130   -0.0377127918
H        0.8467301903    0.5897221294   -1.1434685421
