26   
torsion grid (-165,)
C        6.1071519058   -0.0542643874    0.2702271737
C        5.4455349087    1.1477616041    0.4018432645
C        4.0073060844   -0.5372393391    0.3435836683
C        0.6355130787   -1.1941638811   -1.1364786349
C        2.6616170526   -2.6183626786    0.9781957300
C        2.0100801431   -1.4474365581    1.6827603262
C        2.7030701135   -1.2486606225    0.3436198900
C        0.2393957895   -1.0439103769   -2.5989347702
C        2.9997492263    1.7782148273    0.5654566228
N        5.2047749005   -1.0947622102    0.2318827822
N        4.1015170616    0.8324286088    0.4542099546
N        1.9647530446   -0.9672483793   -0.8808288184
O       -0.1935553498   -1.4919468072   -0.2776992147
H        7.1738068124   -0.2263967850    0.2055995947
H        5.7947313596    2.1690722620    0.4672540038
H        3.6000810807   -3.0138621071    1.3503487116
H        1.9905228474   -3.3370506326    0.5194365050
H        0.9291149066   -1.4158270749    1.6969275653
H        2.5200168764   -1.0261877551    2.5448206489
H        0.9787301502   -0.5092493362   -3.2024476001
H       -0.7168817438   -0.5193750201   -2.6484767800
H        0.0932150104   -2.0407389609   -3.0273379350
H        2.7214039281    2.1762009155   -0.4155437880
H        3.2918922121    2.6039837586    1.2183797253
H        2.1333010023    1.2758909622    0.9956090432
H        2.5636735646   -0.8971124136   -1.6948610366
26   
torsion grid (-150,)
C        6.1015439299    0.0097384894    0.3611298148
C        5.4056177950    1.1970146827    0.4386021209
C        4.0128371847   -0.5249627661    0.3754576128
C        0.6316938508   -0.9890940279   -1.0835027195
C        2.7229059203   -2.6596221355    0.9361694705
C        2.0177221578   -1.5393501323    1.6633210483
C        2.7243624395   -1.2639766847    0.3475579218
C        0.2144400626   -1.0062683463   -2.5480057590
C        2.9377200839    1.7639557578    0.4981388271
N        5.2269139621   -1.0548065850    0.3201465685
N        4.0690310417    0.8476811424    0.4550396876
N        1.9909437649   -0.9994098733   -0.8809183079
O       -0.2067808428   -0.9508842519   -0.1841921530
H        7.1737974920   -0.1361476947    0.3365019643
H        5.7266265821    2.2283818493    0.4889665457
H        3.6686561294   -3.0313956321    1.3141620383
H        2.0964378294   -3.3875076021    0.4298559086
H        0.9362018436   -1.5243396656    1.6579053637
H        2.4984659772   -1.1309324222    2.5476428412
H        1.0272463998   -0.7725001999   -3.2417674779
H       -0.5981415663   -0.2903394297   -2.6872373404
H       -0.1756244229   -2.0003509893   -2.7889965138
H        2.6912336026    2.1308749325   -0.5032195035
H        3.1789964404    2.6121254196    1.1431705522
H        2.0666157336    1.2482523698    0.9028937973
H        2.5531462302   -1.1586897703   -1.7091916295
26   
torsion grid (-135,)
C        6.0907321304    0.0200849179    0.4473067648
C        5.3639732541    1.1911978420    0.4664910388
C        4.0173393193   -0.5648013103    0.3781772038
C        0.6716427894   -0.8494105768   -1.0654997729
C        2.7822500218   -2.7462996488    0.8657610276
C        2.0181596317   -1.6732507250    1.5986929603
C        2.7474935316   -1.3331151905    0.3130208148
C        0.1540770324   -0.9939015414   -2.4895531095
C        2.8816590713    1.6975840896    0.4024023824
N        5.2444426396   -1.0667379558    0.3901070068
N        4.0366292601    0.8094190325    0.4313813633
N        2.0164136190   -1.0910263357   -0.9179838602
O       -0.0738069895   -0.5199250143   -0.1437002465
H        7.1661836429   -0.0997535164    0.4740174048
H        5.6579406908    2.2310354360    0.5069509838
H        3.7320203537   -3.0895847874    1.2601055779
H        2.2026207383   -3.4847302643    0.3201580865
H        0.9365746852   -1.6827394074    1.5664384076
H        2.4553828807   -1.2703709468    2.5073192832
H        0.9439017727   -0.9914674679   -3.2464415467
H       -0.5457396068   -0.1808554673   -2.6920379666
H       -0.3992315440   -1.9354607530   -2.5674678341
H        2.6824654788    2.0462944996   -0.6159756956
H        3.0684493351    2.5596861058    1.0471251724
H        2.0000474641    1.1680269422    0.7650826846
H        2.5007500349   -1.4247489280   -1.7434638030
26   
torsion grid (-120,)
C        6.1742422352    0.1019181562    0.4428336883
C        5.4233170612    1.2576331711    0.4498784950
C        4.1124072385   -0.5249679641    0.3711066233
C        0.8383631169   -0.7178749158   -1.0665580507
C        2.9412992888   -2.7310427858    0.8970729504
C        2.1214951237   -1.6696593288    1.5831942406
C        2.8670039495   -1.3346534126    0.3062232871
C        0.2439676204   -0.8936459832   -2.4557575485
C        2.9376051297    1.7234800730    0.3769947547
N        5.3503665644   -1.0015040539    0.3919299954
N        4.1041001452    0.8496500373    0.4119753227
N        2.1250591433   -1.1734314149   -0.9279099314
O        0.1958098724   -0.1961656964   -0.1549684832
H        7.2518520295    0.0041395005    0.4740185223
H        5.6952655671    2.3037376246    0.4831794060
H        3.8949407691   -3.0246477457    1.3206567130
H        2.4050052032   -3.5069384231    0.3592572620
H        1.0414210361   -1.7164847645    1.5252032468
H        2.5156480804   -1.2279304420    2.4930710417
H        0.9826158517   -1.1434024239   -3.2229016588
H       -0.2716154744    0.0274857462   -2.7352040211
H       -0.5035234323   -1.6923109026   -2.4176410824
H        2.7854212154    2.1266739231   -0.6295758875
H        3.0808526024    2.5519023824    1.0753542136
H        2.0456830701    1.1657805150    0.6634484556
H        2.5547264478   -1.6022569345   -1.7387333609
26   
torsion grid (-105,)
C        6.1386737534    0.0271585029    0.1340522461
C        5.4148289563    1.1754111991    0.3746659323
C        4.0832787783   -0.5924357659    0.3457064662
C        0.9440876473   -0.7767453668   -1.1443202372
C        2.9128949788   -2.7238522926    1.1348267413
C        2.0671710624   -1.5906736466    1.6560846013
C        2.8439731295   -1.4158259166    0.3691500994
C        0.3557977143   -1.0278117978   -2.5236912423
C        2.9770489457    1.6512772374    0.8210722790
N        5.3020292120   -1.0663009574    0.1164460678
N        4.1000254473    0.7738108045    0.5049285433
N        2.1101860468   -1.4429491660   -0.8781228052
O        0.3872734175   -0.0296323497   -0.3375001951
H        7.2049502137   -0.0708700308   -0.0252991500
H        5.7036247670    2.2134625738    0.4669246495
H        3.8550855598   -2.9505264504    1.6208435497
H        2.3994951781   -3.5711393378    0.6906893107
H        0.9893493341   -1.6566071635    1.5714638278
H        2.4250776431   -1.0358958656    2.5176488541
H        0.9877609385   -1.6434366411   -3.1698887422
H        0.1772436777   -0.0643855529   -3.0075506367
H       -0.6137058633   -1.5198895121   -2.4043588064
H        2.9974602979    2.5242389942    0.1631192333
H        3.0390072483    1.9885488499    1.8611002517
H        2.0367512894    1.1222106604    0.6665346567
H        2.5303677628   -1.9846605050   -1.6230420597
26   
torsion grid (-90,)
C        5.8671518546   -1.0239181861   -0.0748388824
C        5.5019533979    0.2494539435   -0.4569918741
C        3.7496005517   -0.8648616847    0.3073518971
C        0.8363986622   -1.2017808887   -1.3200253375
C        2.1008820399   -1.7531449877    2.0601920489
C        1.5732085264   -0.3966179133    1.6681140285
C        2.3483665269   -1.2189399448    0.6631607084
C        0.2353786456   -2.0734189488   -2.4102598157
C        3.3365187080    1.5426903785   -0.4221280869
N        4.7714635453   -1.7086471968    0.3983063857
N        4.1450532833    0.3434525399   -0.2181677184
N        1.5909583230   -1.8639762701   -0.3881531208
O        0.6320910300    0.0128221978   -1.2845446353
H        6.8487720820   -1.4787398128   -0.1139427486
H        6.0650334963    1.0783323782   -0.8633725320
H        2.9626346880   -1.8137875048    2.7154059076
H        1.3877999944   -2.5668101191    2.1503566603
H        0.5115241514   -0.2812039243    1.4839621557
H        2.0652747735    0.4822494365    2.0716881314
H        0.4350460068   -3.1409061586   -2.2828247531
H        0.6348784974   -1.7490287513   -3.3753100026
H       -0.8452099915   -1.9110112623   -2.4309532223
H        2.2935448912    1.2623072543   -0.5673725181
H        3.6873896573    2.0606019016   -1.3177778926
H        3.4273406512    2.2178542790    0.4358081858
H        1.8320274542   -2.8302324881   -0.5723994573
26   
torsion grid (-75,)
C        5.4207891921   -1.1318063112   -0.2687283352
C        5.0890268809    0.1867116689   -0.4977673087
C        3.3446370389   -0.9271054498    0.2846280283
C        0.5786801443   -1.2561091729   -1.3311319388
C        1.7818402134   -1.7988484997    2.1324221092
C        1.2461326716   -0.4389448154    1.7603252755
C        1.9648658405   -1.2744652824    0.7236986335
C       -0.0030371903   -2.1344355040   -2.4254822369
C        2.9912362609    1.5522330150   -0.2025325484
N        4.3311492042   -1.8151493457    0.2178066246
N        3.7583454771    0.3107309713   -0.1497461732
N        1.1393966349   -1.9270608207   -0.2727629964
O        0.5245027990   -0.0278471762   -1.3928927818
H        6.3749504225   -1.6187328708   -0.4253463788
H        5.6594622537    1.0290521870   -0.8639920345
H        2.6725888173   -1.8602138256    2.7475930768
H        1.0683331158   -2.6064935103    2.2646893992
H        0.1767648012   -0.3201075766    1.6269045598
H        1.7611527527    0.4353332061    2.1437077401
H       -0.0659872597   -3.1911227251   -2.1515496448
H        0.6228562788   -2.0382613366   -3.3181314127
H       -0.9994164940   -1.7660982073   -2.6793325561
H        1.9448000081    1.3225227049   -0.3978342887
H        3.3724567014    2.1666892374   -1.0209587825
H        3.0925976710    2.1099518589    0.7348908146
H        1.3346859662   -2.9124895702   -0.4087115394
26   
torsion grid (-60,)
C        5.3858050132   -1.1377294187   -0.3630605430
C        5.0490433363    0.1903202014   -0.5173767038
C        3.3318497982   -0.9562559147    0.2774096534
C        0.7577432616   -1.4007087021   -1.3847465240
C        1.8374537272   -1.8466889054    2.1785535951
C        1.2823083539   -0.4898031123    1.8221346004
C        1.9745621833   -1.3271185783    0.7654845002
C        0.2399070289   -2.3486634230   -2.4520587301
C        2.9650941725    1.5402833974   -0.1009917225
N        4.3135621531   -1.8409146373    0.1328138889
N        3.7334536047    0.2996796295   -0.1127082920
N        1.1167889840   -1.9957191539   -0.1968293341
O        0.8370687687   -0.1879501637   -1.5706697808
H        6.3321475148   -1.6176720175   -0.5779981369
H        5.6053800622    1.0471958680   -0.8712103656
H        2.7472085185   -1.9008736008    2.7659234362
H        1.1338911272   -2.6584239957    2.3383881512
H        0.2077361189   -0.3818789776    1.7224993949
H        1.8013605939    0.3865070858    2.1951106611
H       -0.2018736879   -3.2584128485   -2.0352497016
H        1.0741117053   -2.6363304459   -3.1013079464
H       -0.4995852872   -1.8272509955   -3.0615080647
H        1.9204673524    1.3165507149   -0.3080502005
H        3.3420993327    2.1935547929   -0.8904807611
H        3.0676501798    2.0526916359    0.8617063928
H        1.2458447987   -3.0013988316   -0.2363569998
26   
torsion grid (-45,)
C        5.3487138414   -1.1161740103   -0.4459437784
C        5.0306819508    0.2223695714   -0.5369749630
C        3.3139197428   -0.9294533974    0.2478814450
C        0.8732513588   -1.4002290654   -1.4457124375
C        1.8735494367   -1.8611877041    2.1689229250
C        1.3517810103   -0.4722528661    1.8912125011
C        1.9689379988   -1.2936884789    0.7728700492
C        0.3096155830   -2.3851545928   -2.4546962624
C        2.9659922841    1.5775654927   -0.0512557386
N        4.2773869739   -1.8227159939    0.0470694138
N        3.7276269128    0.3352218733   -0.0965239509
N        1.0441022405   -1.9018065490   -0.1731671564
O        1.1421686558   -0.2389866147   -1.7433143146
H        6.2821116391   -1.6011491883   -0.7020965087
H        5.5915213400    1.0837380335   -0.8722498037
H        2.8051660664   -1.9714277866    2.7123514938
H        1.1475839336   -2.6523916897    2.3343727074
H        0.2776324419   -0.3268229888    1.8456003274
H        1.9172789671    0.3689855215    2.2777276151
H       -0.3077260563   -3.1607146389   -1.9917760190
H        1.1428073498   -2.8717515807   -2.9736529025
H       -0.2791824884   -1.8396573793   -3.1933576934
H        1.9195575381    1.3632622109   -0.2572568797
H        3.3381059212    2.2463746979   -0.8296807989
H        3.0749244398    2.0688292586    0.9216539446
H        1.0237488985   -2.9149376392   -0.1188148472
26   
torsion grid (-30,)
C        5.3328818090   -1.0816065063   -0.4389120881
C        5.0089137023    0.2565671164   -0.5147917025
C        3.2913487385   -0.9146623996    0.2356725609
C        0.9533174870   -1.4162342068   -1.5185057879
C        1.8699978869   -1.9165367025    2.1269000057
C        1.3977401503   -0.4930905247    1.9456120629
C        1.9478454909   -1.2775176419    0.7633337173
C        0.2989613275   -2.4153295775   -2.4576879454
C        2.9201119066    1.5844316538   -0.0517546919
N        4.2603694588   -1.8005253025    0.0340998148
N        3.7031963462    0.3567470748   -0.0814223243
N        0.9670384145   -1.7893447357   -0.1903386353
O        1.4159596789   -0.3511964350   -1.9175534195
H        6.2710347159   -1.5584343679   -0.6927583242
H        5.5674931041    1.1246188797   -0.8363200866
H        2.8118602213   -2.0972988505    2.6323006838
H        1.1156303214   -2.6847522096    2.2765847460
H        0.3289365260   -0.3049578335    1.9449885608
H        2.0088557161    0.3017333792    2.3610840177
H       -0.4607508329   -3.0291244335   -1.9643635044
H        1.0725726371   -3.0797224389   -2.8581531362
H       -0.1514805669   -1.8757896095   -3.2918374548
H        1.8820173049    1.3537133713   -0.2819717350
H        3.2958024182    2.2616042850   -0.8209428388
H        2.9942252434    2.0757602710    0.9243089244
H        0.7533933440   -2.7703221312   -0.0453116189
26   
torsion grid (-15,)
C        5.3644440278   -1.0250027654   -0.3361453522
C        5.0000072324    0.2991435785   -0.4610691037
C        3.2910879164   -0.9120397795    0.2415519540
C        1.0175652629   -1.4595067273   -1.5905766477
C        1.8693619491   -2.0153805303    2.0589083952
C        1.4367049031   -0.5674238490    1.9900984712
C        1.9414671434   -1.2836868030    0.7440316815
C        0.1954017974   -2.4133729462   -2.4434534918
C        2.8412364808    1.5560076545   -0.1181346953
N        4.2955183033   -1.7690397530    0.1068645645
N        3.6756927844    0.3647240112   -0.0832669092
N        0.9256515117   -1.6796460046   -0.2323661047
O        1.6854672836   -0.5568423094   -2.0860688017
H        6.3280061009   -1.4757372721   -0.5365874226
H        5.5424689005    1.1769375691   -0.7837674947
H        2.8139986351   -2.2626182832    2.5296023675
H        1.0945072424   -2.7700496392    2.1720321335
H        0.3736619327   -0.3498834791    2.0285522095
H        2.0793806188    0.1789347933    2.4470488004
H       -0.6809423866   -2.8086044200   -1.9204338983
H        0.8294511177   -3.2562028265   -2.7396773330
H       -0.1235211643   -1.8935843656   -3.3478449370
H        1.8287139389    1.2796268368   -0.4071448367
H        3.2320557406    2.2421740271   -0.8714861935
H        2.8299593949    2.0591434126    0.8546783904
H        0.4747206243   -2.5559728489    0.0040626250
26   
torsion grid (0,)
C        5.3023063058   -0.8710501014   -0.0070575896
C        4.8471885245    0.3994850705   -0.2880462394
C        3.1799668526   -0.9001512731    0.3544151989
C        0.9733600750   -1.4932362496   -1.6140842367
C        1.7491303298   -2.2110508774    1.9977849919
C        1.2913507549   -0.7694771462    2.0936905028
C        1.8220267706   -1.3279348362    0.7786618701
C       -0.1465597503   -2.1428665946   -2.4168401959
C        2.5570868224    1.4509351224   -0.3316008759
N        4.2580445359   -1.6698419481    0.4009760330
N        3.4921210455    0.3797250477   -0.0310954165
N        0.8244788117   -1.5906090388   -0.2530256580
O        1.9108137576   -0.9282086171   -2.1714388556
H        6.3155980690   -1.2471975755   -0.0655773811
H        5.3466223499    1.2919324684   -0.6390490674
H        2.6926082418   -2.4952365642    2.4490264438
H        0.9878178928   -2.9871811205    2.0063253597
H        0.2237491175   -0.5741281944    2.1549536494
H        1.9178824780   -0.0672537647    2.6354653388
H       -1.0423550286   -2.3669200314   -1.8296059365
H        0.2316371034   -3.0758634065   -2.8465397011
H       -0.4133481687   -1.4812122850   -3.2432939407
H        2.2650304816    1.4100095864   -1.3839192646
H        3.0207044957    2.4144274149   -0.1053822466
H        1.6650818651    1.3377466323    0.2867858337
H        0.0448498639   -2.1545138104    0.0602271300
26   
torsion grid (15,)
C        4.2194346104    1.7095491773    0.7039367967
C        4.9590671250    1.0882858556   -0.2796622954
C        3.2281080559   -0.1599384124    0.2939775413
C        0.9739242462   -0.5277235184   -1.6262496610
C        2.8619371453   -2.6649938173    0.7678823887
C        2.0275378584   -1.8758409515    1.7525001194
C        2.2851791903   -1.3067087172    0.3821963822
C       -0.4680746854   -0.3460346481   -2.0766313679
C        4.6704942555   -1.0252790625   -1.6076623857
N        3.1496323792    0.9210469346    1.0599031891
N        4.3283590205   -0.1131106348   -0.5268992164
N        1.1279645792   -1.3208019235   -0.5114876764
O        1.9094653929   -0.0127188772   -2.2318998420
H        4.4051433418    2.6643645254    1.1790424848
H        5.8489788618    1.3831450698   -0.8184342855
H        3.9309869700   -2.7309717450    0.9467222195
H        2.4118583767   -3.5359060933    0.3007471002
H        1.0241077453   -2.2358956996    1.9678703500
H        2.5179045002   -1.3835670208    2.5844000652
H       -1.1221395103   -1.1689534747   -1.7724021483
H       -0.4884580018   -0.2472278700   -3.1628618163
H       -0.8562712690    0.5823586275   -1.6438446066
H        4.3088503059   -0.6296827059   -2.5589662423
H        4.1933241582   -1.9892042057   -1.4350557450
H        5.7546086141   -1.1650780805   -1.6382356196
H        0.2600132076   -1.5323424154   -0.0337944483
26   
torsion grid (30,)
C        4.1670339248    2.0693468419    0.7305482516
C        4.9565190859    1.4736680968   -0.2303161632
C        3.3258966252    0.1137861054    0.3838049774
C        1.0292863078   -0.3669329794   -1.4293547741
C        3.0938660352   -2.4442188332    0.6855439857
C        2.3614611237   -1.7799990790    1.8276992432
C        2.4452988519   -1.0809759388    0.4942711597
C       -0.4003990346    0.0348440885   -1.7503975390
C        4.8882226247   -0.7378091649   -1.4326272587
N        3.1596263729    1.2136435875    1.1098244464
N        4.4141780066    0.2239701309   -0.4469225066
N        1.1860321113   -1.0580539733   -0.2454740939
O        1.9655778057   -0.1085440250   -2.1804217570
H        4.2721349313    3.0546598469    1.1665026839
H        5.8265920935    1.8156978626   -0.7733508246
H        4.1768414270   -2.4929972554    0.7364991052
H        2.6142613491   -3.2810849736    0.1881890313
H        1.3973632633   -2.1902053020    2.1173105944
H        2.9355682920   -1.3473641876    2.6391456799
H       -1.1387181372   -0.6558245102   -1.3316945705
H       -0.5200062703    0.0864529902   -2.8332457644
H       -0.5881015759    1.0318024759   -1.3365494552
H        4.0390612211   -1.2832943633   -1.8391920615
H        5.6110235503   -1.4317630736   -0.9904125505
H        5.3678047312   -0.1975149205   -2.2508123697
H        0.3751879564   -1.0050152789    0.3618339741
26   
torsion grid (45,)
C        4.1207209929    2.0717211085    0.7541119883
C        4.9067899218    1.4978105151   -0.2225644432
C        3.3003080341    0.1088136721    0.3947607331
C        0.9898241361   -0.4788104757   -1.4425597277
C        3.0280047581   -2.4693905827    0.5834982943
C        2.3785134310   -1.8461958627    1.7952713153
C        2.4135235843   -1.0833193489    0.4929977118
C       -0.3961321835    0.0334611655   -1.7928591625
C        4.8825756730   -0.7116210406   -1.4272345297
N        3.1267899092    1.2006690268    1.1325664961
N        4.3761134607    0.2442654081   -0.4499049175
N        1.1194721133   -0.9893541990   -0.1683161414
O        1.9203549888   -0.4508578358   -2.2439900596
H        4.2186900552    3.0530442908    1.2006953487
H        5.7685218292    1.8555359112   -0.7687941604
H        4.1098105300   -2.5495452662    0.5721574990
H        2.4987531038   -3.2650166327    0.0698050980
H        1.4172994807   -2.2397227638    2.1140383550
H        3.0100258946   -1.4725761535    2.5934156976
H       -1.1889892496   -0.4739925570   -1.2353895384
H       -0.5618022240   -0.0925938056   -2.8635939530
H       -0.4439380737    1.1036211979   -1.5629686506
H        4.0507999044   -1.2839313580   -1.8321556295
H        5.6254401943   -1.3777203741   -0.9753373238
H        5.3506294862   -0.1621318567   -2.2462130776
H        0.3663455176   -0.7298400507    0.4605064879
26   
torsion grid (60,)
C        4.3238730522    2.1263902829    0.9205475190
C        5.0782630543    1.5631336624   -0.0867764426
C        3.4930215421    0.1657329940    0.5673461011
C        1.1337016468   -0.6248257061   -1.2775067738
C        3.1824316873   -2.4192571550    0.7191071276
C        2.5992930404   -1.8030971539    1.9668416788
C        2.5994996225   -1.0211106607    0.6726629933
C       -0.2339963169   -0.1097720433   -1.6896311627
C        5.0293686227   -0.6407016249   -1.3033560271
N        3.3439792697    1.2497814625    1.3220334653
N        4.5390322710    0.3124416898   -0.3131206247
N        1.2882029850   -0.8834919436    0.0644810122
O        2.0311120641   -0.8115471873   -2.0973506761
H        4.4352515251    3.1032360501    1.3738237326
H        5.9246092021    1.9256084500   -0.6535833106
H        4.2605203650   -2.5211504330    0.6573915059
H        2.6163384663   -3.1937270938    0.2130515866
H        1.6411427335   -2.1749145772    2.3178732627
H        3.2734508451   -1.4573696513    2.7423976277
H       -1.0056862776   -0.2738885645   -0.9323631164
H       -0.5285264458   -0.5957121214   -2.6217611056
H       -0.1566504938    0.9652352760   -1.8826802885
H        4.1934268304   -1.2259427180   -1.6812415080
H        5.7946687875   -1.2936727735   -0.8699281211
H        5.4679726269   -0.0870460850   -2.1360126663
H        0.5905496585   -0.4697903015    0.6736157078
26   
torsion grid (75,)
C        4.4461598550    2.1206832799    1.0446408735
C        5.1355895905    1.6017945425   -0.0307491913
C        3.5475264887    0.2046170628    0.6187893990
C        1.1274415301   -0.7305417633   -1.2890120834
C        3.1508603090   -2.3758379858    0.6779738982
C        2.5958186425   -1.7816870356    1.9480673688
C        2.6200485789   -0.9587832167    0.6774152043
C       -0.2226753829   -0.2030397581   -1.7433967992
C        4.9898626603   -0.5410830693   -1.3491233535
N        3.4631805804    1.2448392204    1.4417359698
N        4.5514725521    0.3807274911   -0.3047861468
N        1.3209789644   -0.7507162014    0.0699036311
O        1.9728353792   -1.1231124226   -2.0931066900
H        4.6047255299    3.0656579805    1.5485737028
H        5.9664601491    1.9754185962   -0.6130691431
H        4.2247623737   -2.5088747494    0.6027049364
H        2.5590552023   -3.1127281147    0.1467297202
H        1.6243081197   -2.1271671317    2.2882339354
H        3.2838241338   -1.4845584530    2.7316782115
H       -0.9628480847   -0.1516264185   -0.9400546051
H       -0.5989401313   -0.8421638343   -2.5446151375
H       -0.0832704096    0.8013913642   -2.1560160887
H        4.1353936104   -1.1121039367   -1.7095052550
H        5.7674119533   -1.2133735970   -0.9703066450
H        5.3989794263    0.0378639395   -2.1798446553
H        0.6675003595   -0.2170886013    0.6320602710
26   
torsion grid (90,)
C        4.7096361356    2.1001294030    1.3156501099
C        5.2820669269    1.6452196781    0.1468022409
C        3.6709087488    0.2791228693    0.8057153129
C        1.1156350189   -0.7373793952   -1.1133010461
C        3.1457494622   -2.2763510618    0.7911322088
C        2.6191565910   -1.6867491613    2.0748879584
C        2.6854168120   -0.8363170539    0.8216185067
C       -0.2481207016   -0.2391451841   -1.5622232743
C        4.9145288767   -0.3724062055   -1.3220392098
N        3.7093106278    1.2449187978    1.7169082258
N        4.6086780993    0.4846475589   -0.1796261847
N        1.4085068311   -0.5371837363    0.2095359222
O        1.8814502384   -1.3016198122   -1.8966242282
H        4.9617194654    2.9866663343    1.8834905355
H        6.0871380578    2.0252784390   -0.4668875945
H        4.2132029507   -2.4520575087    0.7071611448
H        2.5240587311   -2.9727093086    0.2406779539
H        1.6306181085   -1.9920185287    2.4039053170
H        3.3182136331   -1.4393646228    2.8659006139
H       -0.8291587452    0.2359881024   -0.7670655862
H       -0.8147579045   -1.0848251493   -1.9609373074
H       -0.1065863563    0.4751804359   -2.3776845916
H        4.0298112477   -0.9455685518   -1.5983820751
H        5.7414595741   -1.0504199747   -1.0838361735
H        5.2040892097    0.2535461927   -2.1692528653
H        0.7939246609    0.0615738206    0.7474138631
26   
torsion grid (105,)
C        4.8407738906    1.8980145422    1.6441024795
C        5.3548220912    1.5766572597    0.4060321782
C        3.7243472328    0.1848677746    0.9570343030
C        1.2179743861   -0.9834223161   -1.1551877954
C        3.1589338774   -2.3550908938    0.8736961593
C        2.5144836086   -1.7570736431    2.0977067290
C        2.7186002377   -0.9073263054    0.8575010114
C       -0.1320946683   -0.5201264350   -1.6790781166
C        4.8676891402   -0.2381236012   -1.2785437652
N        3.8267682828    1.0281191570    1.9772739383
N        4.6340650752    0.4827784764   -0.0308714186
N        1.5254166151   -0.5668935220    0.1122650201
O        1.9610231532   -1.6906512593   -1.8384831467
H        5.1424543522    2.6992180246    2.3066813924
H        6.1473459105    2.0093926681   -0.1890399482
H        4.2289755569   -2.5362548006    0.8924692242
H        2.5896905509   -3.0461291018    0.2640857550
H        1.4926264476   -2.0482594147    2.3207691492
H        3.1294779670   -1.5143252246    2.9568756466
H       -0.6555952370    0.1673394708   -1.0087941025
H       -0.7611032445   -1.3992482610   -1.8458415179
H        0.0168878721   -0.0350899217   -2.6469294661
H        4.0419040932   -0.9224341498   -1.4728671409
H        5.8039986616   -0.8032092795   -1.2216755797
H        4.9322938795    0.4732477539   -2.1062964601
H        0.8840873427    0.0651298956    0.5750284092
26   
torsion grid (120,)
C        5.1108821839    1.7348722972    1.6903950160
C        5.4571381409    1.5555774861    0.3684327011
C        3.7933404555    0.2067993250    0.9297640311
C        1.2587905678   -1.0912425219   -1.2415202353
C        3.0871307202   -2.2920967520    0.9469143437
C        2.3598199418   -1.5792677455    2.0569448259
C        2.7325970948   -0.8260613185    0.7927235581
C       -0.0567253447   -0.6031622133   -1.8291375961
C        4.5870552854    0.0571322372   -1.4750748377
N        4.0740860470    0.8930291046    2.0299219793
N        4.6156882186    0.5704396852   -0.1108221981
N        1.6540034624   -0.4459677868   -0.0970906176
O        1.9048401085   -1.9930326486   -1.7757959252
H        5.5482568132    2.4148756383    2.4101711475
H        6.2064433437    2.0192298803   -0.2584387960
H        4.1406700297   -2.5135829351    1.0860757718
H        2.5465388493   -2.9975582821    0.3286962009
H        1.3051544473   -1.8021314215    2.1868945670
H        2.8981215255   -1.3058272982    2.9572351490
H       -0.4032453167    0.3446816255   -1.4072206883
H       -0.8226246346   -1.3648238176   -1.6521306486
H        0.0600671824   -0.4978116157   -2.9097182005
H        4.0686920951   -0.9016229597   -1.5014962188
H        5.6098139782   -0.0794601640   -1.8353842602
H        4.0636498945    0.7521801367   -2.1398111649
H        1.0379448947    0.2707807195    0.2671606229
26   
torsion grid (135,)
C        5.0162460861    1.6422764712    1.7017522602
C        5.3898224638    1.4728874449    0.3857681031
C        3.7186902445    0.1158887659    0.9062455795
C        1.0958174443   -1.2560169060   -1.2370134159
C        3.0344467054   -2.3835151351    0.8985490886
C        2.2439122429   -1.6774766276    1.9705057892
C        2.6705700731   -0.9213042722    0.7254218100
C       -0.1913252722   -0.6833007741   -1.8130474460
C        4.5487053634   -0.0201168867   -1.4813886797
N        3.9748530244    0.7951590788    2.0156952298
N        4.5608992395    0.4878025861   -0.1155476247
N        1.6467232452   -0.5136721523   -0.2200995529
O        1.5914735289   -2.2909762913   -1.6810326088
H        5.4373770495    2.3186259417    2.4344727916
H        6.1500300787    1.9433359137   -0.2225732628
H        4.0833382581   -2.5865835345    1.0926794227
H        2.5321446247   -3.0974029758    0.2590384055
H        1.1865692488   -1.9129181687    2.0448238345
H        2.7316351438   -1.3995172074    2.8979939413
H       -0.3587521910    0.3665797567   -1.5552935043
H       -1.0353184616   -1.2718955054   -1.4388072366
H       -0.1676139843   -0.7915852799   -2.8990546161
H        4.1049168092   -1.0160556669   -1.5005779858
H        5.5729240728   -0.0802821185   -1.8570111039
H        3.9631375684    0.6332997085   -2.1360134959
H        1.0996689833    0.2777988756    0.0988469276
26   
torsion grid (150,)
C        4.9606367923    1.7031175519    1.6929610643
C        5.3972022120    1.5219586322    0.3981630597
C        3.7412679352    0.1272156236    0.8687706662
C        0.9873981238   -1.3057126366   -1.1656447328
C        3.1586186185   -2.3873969189    0.8054079160
C        2.3187603754   -1.7399760267    1.8809206044
C        2.7268490720   -0.9384000486    0.6623167689
C       -0.2089132575   -0.6006991821   -1.7909257552
C        4.6827745205   -0.0241998416   -1.4765838979
N        3.9293520612    0.8331613451    1.9751433210
N        4.6177667710    0.5066297413   -0.1218628002
N        1.7169156357   -0.5259909553   -0.3004489275
O        1.2573297266   -2.4718666483   -1.4493160726
H        5.3305164992    2.4027041452    2.4314684553
H        6.1718574870    2.0019198499   -0.1839387561
H        4.2130960577   -2.5432716856    1.0145033616
H        2.6888443322   -3.1113944252    0.1534345307
H        1.2739364003   -2.0308454220    1.9295916339
H        2.7767470647   -1.4632212711    2.8238844503
H       -0.1916385206    0.4867749108   -1.6739021722
H       -1.1233171698   -0.9873540778   -1.3296198914
H       -0.2443249987   -0.8504137664   -2.8532880692
H        4.2777263368   -1.0362919215   -1.4909940200
H        5.7235498387   -0.0541191361   -1.8075696678
H        4.1017197888    0.5934583239   -2.1686698685
H        1.3036338642    0.3699494915   -0.0681517296
26   
torsion grid (165,)
C        4.8980768892    1.7191111641    1.7780984571
C        5.4251763395    1.6038433291    0.5096906282
C        3.7565083005    0.1739219902    0.7983495580
C        0.9283581415   -1.1563959578   -1.2563667720
C        3.2564523510   -2.3308989083    0.5020442218
C        2.3510042249   -1.8100424364    1.5977575121
C        2.7712372829   -0.8899450498    0.4763291888
C       -0.1327472243   -0.3407236928   -1.9823301284
C        4.8612814811    0.1457687133   -1.4816596459
N        3.8603425785    0.8284779664    1.9465066144
N        4.6949186717    0.6088671998   -0.1110210405
N        1.8032859938   -0.4131595513   -0.5038224556
O        0.9742165579   -2.3810647385   -1.3635977473
H        5.2085906935    2.3850310866    2.5728943598
H        6.2334099360    2.1165844149    0.0065875131
H        4.3081156470   -2.4707566173    0.7368590886
H        2.8255557725   -3.0176445774   -0.2137576339
H        1.3213344162   -2.1513769961    1.5738691619
H        2.7614374891   -1.6028515939    2.5797174339
H        0.0690451765    0.7342562976   -1.9972175227
H       -1.0982211212   -0.5100118120   -1.4951932663
H       -0.2125304960   -0.7078979500   -3.0077378313
H        4.5210390057   -0.8870666381   -1.5598144353
H        5.9175152837    0.1935449394   -1.7559392478
H        4.2801609619    0.7581716781   -2.1783535649
H        1.5474044842    0.5570213308   -0.3638785951
26   
torsion grid (180,)
C        4.5341684098    1.7950295331    1.9040358737
C        5.1534601295    1.6183260189    0.6852366356
C        3.6122148943    0.0595034690    1.0161530598
C        0.7647325045   -1.6319473894   -0.7383473517
C        3.3993653410   -2.4931643357    0.7930452405
C        2.4642478670   -2.0470261035    1.9004389289
C        2.7514587445   -1.1210214102    0.7445205558
C       -0.3278393868   -0.9500500584   -1.5489522586
C        4.9355936222   -0.1191044835   -1.1397894452
N        3.5756874237    0.8247073342    2.0977631766
N        4.5552568589    0.5101138091    0.1180024094
N        1.7307615562   -0.7896624604   -0.2469057833
O        0.7684231260   -2.8499975084   -0.5652113615
H        4.7208368163    2.5631895714    2.6434192742
H        5.9407358433    2.1622705768    0.1815602289
H        4.4665721209   -2.5165734561    0.9967980835
H        3.0244232267   -3.2476955107    0.1134465973
H        1.4877159063   -2.5164690378    1.9165260482
H        2.8736218604   -1.7589297316    2.8623453140
H       -0.1339330669    0.1067070991   -1.7536808435
H       -1.2722613558   -1.0372240194   -1.0034066579
H       -0.4446481948   -1.4838670580   -2.4950402420
H        4.1073047868   -0.7244660802   -1.5071744228
H        5.8124331554   -0.7608491674   -1.0054320788
H        5.1662030462    0.6502615021   -1.8805709859
H        1.5158289939    0.1992035315   -0.2841512089
