
  -OEChem-12122420533D

 23 24  0     0  0  0  0  0  0999 V2000
   -5.2503   -4.9125   -2.2222 C   0  0  0  0  0  0  0  0  0  0  0  0
   -1.3837   -1.4585    0.1224 C   0  0  0  0  0  0  0  0  0  0  0  0
   -5.4582   -6.2034   -1.7362 C   0  0  0  0  0  0  0  0  0  0  0  0
   -3.9512   -4.3986   -2.2205 C   0  0  0  0  0  0  0  0  0  0  0  0
   -1.9124   -2.6745   -0.4108 C   0  0  0  0  0  0  0  0  0  0  0  0
   -0.1120   -1.0546   -0.1713 C   0  0  0  0  0  0  0  0  0  0  0  0
   -4.3513   -6.9307   -1.2796 C   0  0  0  0  0  0  0  0  0  0  0  0
   -2.9119   -5.2134   -1.7524 C   0  0  0  0  0  0  0  0  0  0  0  0
   -1.1077   -3.4333   -1.2236 C   0  0  0  0  0  0  0  0  0  0  0  0
    0.7681   -1.8455   -1.0291 C   0  0  0  0  0  0  0  0  0  0  0  0
   -1.4780   -4.7534   -1.8171 C   0  0  0  0  0  0  0  0  0  0  0  0
   -3.1003   -6.4611   -1.2945 N   0  0  0  0  0  0  0  0  0  0  0  0
    0.1672   -3.0219   -1.5009 N   0  0  0  0  0  0  0  0  0  0  0  0
    1.9238   -1.5556   -1.3357 O   0  0  0  0  0  0  0  0  0  0  0  0
   -0.6180   -5.4364   -2.3584 O   0  0  0  0  0  0  0  0  0  0  0  0
   -6.0786   -4.3161   -2.5950 H   0  0  0  0  0  0  0  0  0  0  0  0
   -2.0078   -0.8512    0.7735 H   0  0  0  0  0  0  0  0  0  0  0  0
   -6.4502   -6.6451   -1.7111 H   0  0  0  0  0  0  0  0  0  0  0  0
   -3.7442   -3.4007   -2.5945 H   0  0  0  0  0  0  0  0  0  0  0  0
   -2.9114   -3.0078   -0.1620 H   0  0  0  0  0  0  0  0  0  0  0  0
    0.3072   -0.1352    0.2239 H   0  0  0  0  0  0  0  0  0  0  0  0
   -4.4778   -7.9391   -0.8890 H   0  0  0  0  0  0  0  0  0  0  0  0
    0.7401   -3.6396   -2.0751 H   0  0  0  0  0  0  0  0  0  0  0  0
  1  3  1  0  0  0  0
  1  4  2  0  0  0  0
  1 16  1  0  0  0  0
  2  5  1  0  0  0  0
  2  6  2  0  0  0  0
  2 17  1  0  0  0  0
  3  7  2  0  0  0  0
  3 18  1  0  0  0  0
  4  8  1  0  0  0  0
  4 19  1  0  0  0  0
  5  9  2  0  0  0  0
  5 20  1  0  0  0  0
  6 10  1  0  0  0  0
  6 21  1  0  0  0  0
  7 12  1  0  0  0  0
  7 22  1  0  0  0  0
  8 11  1  0  0  0  0
  8 12  2  0  0  0  0
  9 11  1  0  0  0  0
  9 13  1  0  0  0  0
 10 13  1  0  0  0  0
 10 14  2  0  0  0  0
 11 15  2  0  0  0  0
 13 23  1  0  0  0  0
M  END
$$$$
