19
0 1 C8H7N3S
C                     1.393416408085    -0.063459576700     1.647637262381
C                     0.217490838732    -0.428786790363     0.977306190098
C                     1.660414568931    -0.613738464202     2.893809286081
C                    -0.630794528340    -1.337522985976     1.608375858837
C                    -1.223479237998    -4.376912235362     6.206288716657
C                    -0.388436197241    -4.464172589007     7.281089584697
C                     0.727605001316    -1.526166798007     3.437696601896
C                     0.300976502541    -2.970521222296     5.461912126287
N                    -0.393212550745    -1.881340498025     2.810783916486
N                    -0.835344772311    -3.536024464064     5.182111184301
N                     1.017249909446    -2.068893882204     4.695750315591
S                     0.997782919228    -3.433662149550     7.033708340556
H                     2.091856140816     0.641056279892     1.203552551537
H                    -0.031436613592    -0.023468453657     0.001583684514
H                     2.564237089555    -0.349988578287     3.438518107181
H                    -1.556418562657    -1.652630652626     1.128304536449
H                    -2.158217100910    -4.919250660065     6.109495902324
H                    -0.493508158371    -5.052799663066     8.182311363375
H                     1.884765094803    -1.749589432807     5.104194332744
