
  -OEChem-12102412493D

 18 19  0     0  0  0  0  0  0999 V2000
    1.3800   -0.0372    1.5873 C   0  0  0  0  0  0  0  0  0  0  0  0
    0.2007   -0.4164    0.9391 C   0  0  0  0  0  0  0  0  0  0  0  0
    1.6736   -0.5737    2.8379 C   0  0  0  0  0  0  0  0  0  0  0  0
    1.9130   -2.6057    6.6173 C   0  0  0  0  0  0  0  0  0  0  0  0
   -0.6319   -1.3273    1.5919 C   0  0  0  0  0  0  0  0  0  0  0  0
    0.6773   -3.2729    6.3920 C   0  0  0  0  0  0  0  0  0  0  0  0
    2.0960   -1.8342    5.4914 C   0  0  0  0  0  0  0  0  0  0  0  0
    0.7598   -1.4831    3.3989 C   0  0  0  0  0  0  0  0  0  0  0  0
   -0.3664   -1.8531    2.7933 N   0  0  0  0  0  0  0  0  0  0  0  0
    0.1383   -2.9437    5.2248 N   0  0  0  0  0  0  0  0  0  0  0  0
    1.0142   -2.0573    4.6720 N   0  0  0  0  0  0  0  0  0  0  0  0
    2.0667    0.6684    1.1273 H   0  0  0  0  0  0  0  0  0  0  0  0
   -0.0659   -0.0220   -0.0365 H   0  0  0  0  0  0  0  0  0  0  0  0
    2.5847   -0.2882    3.3502 H   0  0  0  0  0  0  0  0  0  0  0  0
    2.5707   -2.6772    7.4729 H   0  0  0  0  0  0  0  0  0  0  0  0
   -1.5621   -1.6553    1.1302 H   0  0  0  0  0  0  0  0  0  0  0  0
    0.1628   -3.9777    7.0340 H   0  0  0  0  0  0  0  0  0  0  0  0
    2.8981   -1.1623    5.2271 H   0  0  0  0  0  0  0  0  0  0  0  0
  1  2  1  0  0  0  0
  1  3  2  0  0  0  0
  1 12  1  0  0  0  0
  2  5  2  0  0  0  0
  2 13  1  0  0  0  0
  3  8  1  0  0  0  0
  3 14  1  0  0  0  0
  4  6  1  0  0  0  0
  4  7  2  0  0  0  0
  4 15  1  0  0  0  0
  5  9  1  0  0  0  0
  5 16  1  0  0  0  0
  6 10  2  0  0  0  0
  6 17  1  0  0  0  0
  7 11  1  0  0  0  0
  7 18  1  0  0  0  0
  8  9  2  0  0  0  0
  8 11  1  0  0  0  0
 10 11  1  0  0  0  0
M  END
$$$$
