
  -OEChem-12102412493D

 19 20  0     0  0  0  0  0  0999 V2000
    1.3934   -0.0635    1.6476 C   0  0  0  0  0  0  0  0  0  0  0  0
    0.2175   -0.4288    0.9773 C   0  0  0  0  0  0  0  0  0  0  0  0
    1.6604   -0.6137    2.8938 C   0  0  0  0  0  0  0  0  0  0  0  0
   -0.6308   -1.3375    1.6084 C   0  0  0  0  0  0  0  0  0  0  0  0
   -1.2235   -4.3769    6.2063 C   0  0  0  0  0  0  0  0  0  0  0  0
   -0.3884   -4.4642    7.2811 C   0  0  0  0  0  0  0  0  0  0  0  0
    0.7276   -1.5262    3.4377 C   0  0  0  0  0  0  0  0  0  0  0  0
    0.3010   -2.9705    5.4619 C   0  0  0  0  0  0  0  0  0  0  0  0
   -0.3932   -1.8813    2.8108 N   0  0  0  0  0  0  0  0  0  0  0  0
   -0.8353   -3.5360    5.1821 N   0  0  0  0  0  0  0  0  0  0  0  0
    1.0172   -2.0689    4.6958 N   0  0  0  0  0  0  0  0  0  0  0  0
    0.9978   -3.4337    7.0337 S   0  0  0  0  0  0  0  0  0  0  0  0
    2.0919    0.6411    1.2036 H   0  0  0  0  0  0  0  0  0  0  0  0
   -0.0314   -0.0235    0.0016 H   0  0  0  0  0  0  0  0  0  0  0  0
    2.5642   -0.3500    3.4385 H   0  0  0  0  0  0  0  0  0  0  0  0
   -1.5564   -1.6526    1.1283 H   0  0  0  0  0  0  0  0  0  0  0  0
   -2.1582   -4.9193    6.1095 H   0  0  0  0  0  0  0  0  0  0  0  0
   -0.4935   -5.0528    8.1823 H   0  0  0  0  0  0  0  0  0  0  0  0
    1.8848   -1.7496    5.1042 H   0  0  0  0  0  0  0  0  0  0  0  0
  1  2  1  0  0  0  0
  1  3  2  0  0  0  0
  1 13  1  0  0  0  0
  2  4  2  0  0  0  0
  2 14  1  0  0  0  0
  3  7  1  0  0  0  0
  3 15  1  0  0  0  0
  4  9  1  0  0  0  0
  4 16  1  0  0  0  0
  5  6  2  0  0  0  0
  5 10  1  0  0  0  0
  5 17  1  0  0  0  0
  6 12  1  0  0  0  0
  6 18  1  0  0  0  0
  7  9  2  0  0  0  0
  7 11  1  0  0  0  0
  8 10  2  0  0  0  0
  8 11  1  0  0  0  0
  8 12  1  0  0  0  0
 11 19  1  0  0  0  0
M  END
$$$$
