
  -OEChem-12122420533D

 17 17  0     0  0  0  0  0  0999 V2000
    1.4301   -0.0283    1.6292 C   0  0  0  0  0  0  0  0  0  0  0  0
    0.2666   -0.3627    0.9191 C   0  0  0  0  0  0  0  0  0  0  0  0
    1.6583   -0.6020    2.8706 C   0  0  0  0  0  0  0  0  0  0  0  0
   -0.6103   -1.2669    1.5082 C   0  0  0  0  0  0  0  0  0  0  0  0
    0.7049   -1.5114    3.3841 C   0  0  0  0  0  0  0  0  0  0  0  0
    0.1991   -3.0064    5.4019 C   0  0  0  0  0  0  0  0  0  0  0  0
   -0.4084   -1.8341    2.7093 N   0  0  0  0  0  0  0  0  0  0  0  0
   -0.9687   -3.4452    4.8669 N   0  0  0  0  0  0  0  0  0  0  0  0
    0.9368   -2.0846    4.6288 N   0  0  0  0  0  0  0  0  0  0  0  0
    0.6478   -3.3518    6.4935 O   0  0  0  0  0  0  0  0  0  0  0  0
    2.1497    0.6733    1.2155 H   0  0  0  0  0  0  0  0  0  0  0  0
    0.0499    0.0633   -0.0551 H   0  0  0  0  0  0  0  0  0  0  0  0
    2.5498   -0.3627    3.4441 H   0  0  0  0  0  0  0  0  0  0  0  0
   -1.5271   -1.5603    1.0000 H   0  0  0  0  0  0  0  0  0  0  0  0
   -1.5002   -4.1047    5.4160 H   0  0  0  0  0  0  0  0  0  0  0  0
   -1.2727   -3.1112    3.9549 H   0  0  0  0  0  0  0  0  0  0  0  0
    1.7876   -1.8164    5.1073 H   0  0  0  0  0  0  0  0  0  0  0  0
  1  2  1  0  0  0  0
  1  3  2  0  0  0  0
  1 11  1  0  0  0  0
  2  4  2  0  0  0  0
  2 12  1  0  0  0  0
  3  5  1  0  0  0  0
  3 13  1  0  0  0  0
  4  7  1  0  0  0  0
  4 14  1  0  0  0  0
  5  7  2  0  0  0  0
  5  9  1  0  0  0  0
  6  8  1  0  0  0  0
  6  9  1  0  0  0  0
  6 10  2  0  0  0  0
  8 15  1  0  0  0  0
  8 16  1  0  0  0  0
  9 17  1  0  0  0  0
M  END
$$$$
