
  -OEChem-12102412493D

 21 22  0     0  0  0  0  0  0999 V2000
   -1.4434   -6.6628   13.5111 C   0  0  0  0  0  0  0  0  0  0  0  0
   -1.8189   -7.5982   14.5241 C   0  0  0  0  0  0  0  0  0  0  0  0
   -1.0717   -5.3835   13.8202 C   0  0  0  0  0  0  0  0  0  0  0  0
   -5.0800   -7.1035   18.8531 C   0  0  0  0  0  0  0  0  0  0  0  0
   -4.1586   -6.2028   19.2835 C   0  0  0  0  0  0  0  0  0  0  0  0
   -1.7969   -7.1932   15.8312 C   0  0  0  0  0  0  0  0  0  0  0  0
   -1.0479   -4.9183   15.1962 C   0  0  0  0  0  0  0  0  0  0  0  0
   -3.2511   -7.5677   17.8498 C   0  0  0  0  0  0  0  0  0  0  0  0
   -2.1470   -8.0988   16.9929 C   0  0  0  0  0  0  0  0  0  0  0  0
   -4.4827   -7.9685   17.9348 N   0  0  0  0  0  0  0  0  0  0  0  0
   -1.4191   -5.9106   16.1287 N   0  0  0  0  0  0  0  0  0  0  0  0
   -0.7457   -3.7894   15.5898 O   0  0  0  0  0  0  0  0  0  0  0  0
   -2.9676   -6.4896   18.6494 O   0  0  0  0  0  0  0  0  0  0  0  0
   -1.4577   -6.9813   12.4712 H   0  0  0  0  0  0  0  0  0  0  0  0
   -2.1198   -8.6088   14.2740 H   0  0  0  0  0  0  0  0  0  0  0  0
   -0.7879   -4.6627   13.0610 H   0  0  0  0  0  0  0  0  0  0  0  0
   -6.1208   -7.1968   19.1310 H   0  0  0  0  0  0  0  0  0  0  0  0
   -4.1551   -5.3698   19.9700 H   0  0  0  0  0  0  0  0  0  0  0  0
   -1.2548   -8.2560   17.6121 H   0  0  0  0  0  0  0  0  0  0  0  0
   -2.4659   -9.0678   16.6097 H   0  0  0  0  0  0  0  0  0  0  0  0
   -1.4410   -5.5890   17.0932 H   0  0  0  0  0  0  0  0  0  0  0  0
  1  2  1  0  0  0  0
  1  3  2  0  0  0  0
  1 14  1  0  0  0  0
  2  6  2  0  0  0  0
  2 15  1  0  0  0  0
  3  7  1  0  0  0  0
  3 16  1  0  0  0  0
  4  5  2  0  0  0  0
  4 10  1  0  0  0  0
  4 17  1  0  0  0  0
  5 13  1  0  0  0  0
  5 18  1  0  0  0  0
  6  9  1  0  0  0  0
  6 11  1  0  0  0  0
  7 11  1  0  0  0  0
  7 12  2  0  0  0  0
  8  9  1  0  0  0  0
  8 10  2  0  0  0  0
  8 13  1  0  0  0  0
  9 19  1  0  0  0  0
  9 20  1  0  0  0  0
 11 21  1  0  0  0  0
M  END
$$$$
