24
0 1 C11H9N3O
C                     1.062214774384    -1.343004145315     1.034692749208
C                     1.127934144152    -3.281732742356     9.006104213052
C                     0.178905369114    -0.260396198883     1.038882213434
C                     0.320058071830    -2.481517727265     9.820719579407
C                     1.351219489216    -1.979239911865     2.242492556414
C                     1.188070413884    -3.036760207043     7.635930495751
C                    -0.380595976481     0.141819280789     2.256816452155
C                    -0.403371366745    -1.453749849246     9.212004038830
C                     0.740138298962    -1.500908852235     3.405359291649
C                     0.416161997977    -1.974029405502     7.132441922892
C                     1.042689373585    -2.179044113603     4.721679348026
N                    -0.110099763768    -0.461154702928     3.419043898985
N                    -0.363851460133    -1.196922125132     7.899545420310
N                     0.381828790045    -1.617143896584     5.778192380843
O                     1.813712825275    -3.137460487066     4.784649837981
H                     1.516362033311    -1.684005146105     0.108081968730
H                     1.710328944739    -4.094410383476     9.432807077100
H                    -0.075439148604     0.265246155645     0.123134784912
H                     0.250350843769    -2.645215411196    10.891801823935
H                     2.027254991287    -2.824577179779     2.311750756444
H                     1.798081676612    -3.628439734006     6.967025857681
H                    -1.072625013061     0.980955602522     2.298750179446
H                    -1.046554981358    -0.803216672274     9.802683113942
H                    -0.219995550889    -0.826586958267     5.553063837469
