
  -OEChem-12122420533D

 23 24  0     0  0  0  0  0  0999 V2000
   -0.3699    5.7667   -5.7709 C   0  0  0  0  0  0  0  0  0  0  0  0
   -0.3976    5.6798    0.8324 C   0  0  0  0  0  0  0  0  0  0  0  0
    0.4718    6.5684   -6.5411 C   0  0  0  0  0  0  0  0  0  0  0  0
   -0.0798    5.6057   -4.4132 C   0  0  0  0  0  0  0  0  0  0  0  0
    0.6305    5.5581   -0.1482 C   0  0  0  0  0  0  0  0  0  0  0  0
   -1.5612    6.3467    0.5608 C   0  0  0  0  0  0  0  0  0  0  0  0
    1.5761    7.1680   -5.9201 C   0  0  0  0  0  0  0  0  0  0  0  0
    1.0584    6.2371   -3.8926 C   0  0  0  0  0  0  0  0  0  0  0  0
    0.4320    6.1197   -1.3823 C   0  0  0  0  0  0  0  0  0  0  0  0
   -1.8019    6.9657   -0.7351 C   0  0  0  0  0  0  0  0  0  0  0  0
    1.4757    6.0169   -2.4557 C   0  0  0  0  0  0  0  0  0  0  0  0
    1.8786    7.0040   -4.6295 N   0  0  0  0  0  0  0  0  0  0  0  0
   -0.7396    6.7905   -1.6416 N   0  0  0  0  0  0  0  0  0  0  0  0
   -2.8081    7.5922   -1.0719 O   0  0  0  0  0  0  0  0  0  0  0  0
    2.6299    5.7392   -2.1740 O   0  0  0  0  0  0  0  0  0  0  0  0
   -1.2351    5.2788   -6.2113 H   0  0  0  0  0  0  0  0  0  0  0  0
   -0.2500    5.2305    1.8115 H   0  0  0  0  0  0  0  0  0  0  0  0
    0.2845    6.7320   -7.5984 H   0  0  0  0  0  0  0  0  0  0  0  0
   -0.7106    4.9894   -3.7792 H   0  0  0  0  0  0  0  0  0  0  0  0
    1.5601    5.0369    0.0451 H   0  0  0  0  0  0  0  0  0  0  0  0
   -2.3539    6.4486    1.2944 H   0  0  0  0  0  0  0  0  0  0  0  0
    2.2483    7.8068   -6.4906 H   0  0  0  0  0  0  0  0  0  0  0  0
   -0.8806    7.2403   -2.5418 H   0  0  0  0  0  0  0  0  0  0  0  0
  1  3  1  0  0  0  0
  1  4  2  0  0  0  0
  1 16  1  0  0  0  0
  2  5  1  0  0  0  0
  2  6  2  0  0  0  0
  2 17  1  0  0  0  0
  3  7  2  0  0  0  0
  3 18  1  0  0  0  0
  4  8  1  0  0  0  0
  4 19  1  0  0  0  0
  5  9  2  0  0  0  0
  5 20  1  0  0  0  0
  6 10  1  0  0  0  0
  6 21  1  0  0  0  0
  7 12  1  0  0  0  0
  7 22  1  0  0  0  0
  8 11  1  0  0  0  0
  8 12  2  0  0  0  0
  9 11  1  0  0  0  0
  9 13  1  0  0  0  0
 10 13  1  0  0  0  0
 10 14  2  0  0  0  0
 11 15  2  0  0  0  0
 13 23  1  0  0  0  0
M  END
$$$$
