
  -OEChem-12102412493D

 17 18  0     0  0  0  0  0  0999 V2000
    0.5864    0.9029    1.8612 C   0  0  0  0  0  0  0  0  0  0  0  0
    0.2322    0.9473    3.2100 C   0  0  0  0  0  0  0  0  0  0  0  0
   -0.2077    0.0981    1.0436 C   0  0  0  0  0  0  0  0  0  0  0  0
   -1.5073   -0.4866    2.8314 C   0  0  0  0  0  0  0  0  0  0  0  0
   -2.7994   -2.7268    3.1440 C   0  0  0  0  0  0  0  0  0  0  0  0
   -2.5192   -2.1814    4.5313 C   0  0  0  0  0  0  0  0  0  0  0  0
   -2.6870   -1.2385    3.3654 C   0  0  0  0  0  0  0  0  0  0  0  0
   -0.8056    0.2608    3.7033 N   0  0  0  0  0  0  0  0  0  0  0  0
   -1.2499   -0.5970    1.5149 N   0  0  0  0  0  0  0  0  0  0  0  0
    1.4318    1.4610    1.4707 H   0  0  0  0  0  0  0  0  0  0  0  0
    0.7959    1.5505    3.9211 H   0  0  0  0  0  0  0  0  0  0  0  0
   -0.0051    0.0044   -0.0229 H   0  0  0  0  0  0  0  0  0  0  0  0
   -1.9859   -3.2094    2.6107 H   0  0  0  0  0  0  0  0  0  0  0  0
   -3.7823   -3.1388    2.9354 H   0  0  0  0  0  0  0  0  0  0  0  0
   -3.3100   -2.2190    5.2746 H   0  0  0  0  0  0  0  0  0  0  0  0
   -1.5170   -2.2965    4.9329 H   0  0  0  0  0  0  0  0  0  0  0  0
   -3.6130   -0.6678    3.3280 H   0  0  0  0  0  0  0  0  0  0  0  0
  1  2  1  0  0  0  0
  1  3  2  0  0  0  0
  1 10  1  0  0  0  0
  2  8  2  0  0  0  0
  2 11  1  0  0  0  0
  3  9  1  0  0  0  0
  3 12  1  0  0  0  0
  4  7  1  0  0  0  0
  4  8  1  0  0  0  0
  4  9  2  0  0  0  0
  5  6  1  0  0  0  0
  5  7  1  0  0  0  0
  5 13  1  0  0  0  0
  5 14  1  0  0  0  0
  6  7  1  0  0  0  0
  6 15  1  0  0  0  0
  6 16  1  0  0  0  0
  7 17  1  0  0  0  0
M  END
$$$$
