
  -OEChem-12122420533D

 23 24  0     1  0  0  0  0  0999 V2000
   -3.8989    0.6681   10.8132 C   0  0  0  0  0  0  0  0  0  0  0  0
   -5.2139    1.1045   10.4655 C   0  0  0  0  0  0  0  0  0  0  0  0
   -3.4947    0.5650   12.1169 C   0  0  0  0  0  0  0  0  0  0  0  0
   -6.0811    1.4269   11.4724 C   0  0  0  0  0  0  0  0  0  0  0  0
   -4.3890    0.9029   13.2093 C   0  0  0  0  0  0  0  0  0  0  0  0
   -8.7125   -0.0046   10.4178 C   0  0  0  0  0  0  0  0  0  0  0  0
   -8.5393    0.8128   11.7052 C   0  0  0  0  0  0  0  0  0  0  0  0
   -8.6247    1.0824    9.3432 C   0  0  0  0  0  0  0  0  0  0  0  0
   -7.5141    1.8801   11.2626 C   0  0  2  0  0  0  0  0  0  0  0  0
   -5.6631    1.3264   12.7740 N   0  0  0  0  0  0  0  0  0  0  0  0
   -4.1395    0.8531   14.4170 O   0  0  0  0  0  0  0  0  0  0  0  0
   -7.7742    2.1193    9.8813 O   0  0  0  0  0  0  0  0  0  0  0  0
   -3.2031    0.4127   10.0168 H   0  0  0  0  0  0  0  0  0  0  0  0
   -5.5344    1.2086    9.4372 H   0  0  0  0  0  0  0  0  0  0  0  0
   -2.4982    0.2361   12.3915 H   0  0  0  0  0  0  0  0  0  0  0  0
   -7.8928   -0.7211   10.3108 H   0  0  0  0  0  0  0  0  0  0  0  0
   -9.6572   -0.5528   10.3836 H   0  0  0  0  0  0  0  0  0  0  0  0
   -9.4786    1.3024   11.9813 H   0  0  0  0  0  0  0  0  0  0  0  0
   -8.1989    0.2152   12.5542 H   0  0  0  0  0  0  0  0  0  0  0  0
   -8.1849    0.7306    8.4052 H   0  0  0  0  0  0  0  0  0  0  0  0
   -9.6084    1.5182    9.1275 H   0  0  0  0  0  0  0  0  0  0  0  0
   -7.6621    2.8250   11.8018 H   0  0  0  0  0  0  0  0  0  0  0  0
   -6.2920    1.5766   13.5322 H   0  0  0  0  0  0  0  0  0  0  0  0
  1  2  1  0  0  0  0
  1  3  2  0  0  0  0
  1 13  1  0  0  0  0
  2  4  2  0  0  0  0
  2 14  1  0  0  0  0
  3  5  1  0  0  0  0
  3 15  1  0  0  0  0
  4  9  1  0  0  0  0
  4 10  1  0  0  0  0
  5 10  1  0  0  0  0
  5 11  2  0  0  0  0
  6  7  1  0  0  0  0
  6  8  1  0  0  0  0
  6 16  1  0  0  0  0
  6 17  1  0  0  0  0
  7  9  1  0  0  0  0
  7 18  1  0  0  0  0
  7 19  1  0  0  0  0
  8 12  1  0  0  0  0
  8 20  1  0  0  0  0
  8 21  1  0  0  0  0
  9 12  1  0  0  0  0
  9 22  1  0  0  0  0
 10 23  1  0  0  0  0
M  END
$$$$
