
  -OEChem-12102412493D

 21 22  0     0  0  0  0  0  0999 V2000
   -0.9991   -3.9422   -0.0708 C   0  0  0  0  0  0  0  0  0  0  0  0
   -1.9441   -4.5662   -0.9422 C   0  0  0  0  0  0  0  0  0  0  0  0
   -0.4259   -4.6247    0.9663 C   0  0  0  0  0  0  0  0  0  0  0  0
   -5.1773   -8.8872    0.4325 C   0  0  0  0  0  0  0  0  0  0  0  0
   -6.1372   -8.0810   -0.0925 C   0  0  0  0  0  0  0  0  0  0  0  0
   -2.2660   -5.8790   -0.7230 C   0  0  0  0  0  0  0  0  0  0  0  0
   -0.7597   -6.0146    1.2317 C   0  0  0  0  0  0  0  0  0  0  0  0
   -4.1927   -7.4903   -0.8557 C   0  0  0  0  0  0  0  0  0  0  0  0
   -3.2081   -6.6616   -1.6175 C   0  0  0  0  0  0  0  0  0  0  0  0
   -3.9370   -8.4968   -0.0700 N   0  0  0  0  0  0  0  0  0  0  0  0
   -1.6856   -6.5546    0.3140 N   0  0  0  0  0  0  0  0  0  0  0  0
   -0.3200   -6.7128    2.1478 O   0  0  0  0  0  0  0  0  0  0  0  0
   -5.5158   -7.1727   -0.9231 O   0  0  0  0  0  0  0  0  0  0  0  0
   -0.7362   -2.9002   -0.2398 H   0  0  0  0  0  0  0  0  0  0  0  0
   -2.3986   -4.0229   -1.7628 H   0  0  0  0  0  0  0  0  0  0  0  0
    0.2887   -4.1628    1.6390 H   0  0  0  0  0  0  0  0  0  0  0  0
   -5.2809   -9.7120    1.1237 H   0  0  0  0  0  0  0  0  0  0  0  0
   -7.2105   -8.0054   -0.0074 H   0  0  0  0  0  0  0  0  0  0  0  0
   -2.6159   -7.3323   -2.2517 H   0  0  0  0  0  0  0  0  0  0  0  0
   -3.7427   -5.9714   -2.2707 H   0  0  0  0  0  0  0  0  0  0  0  0
   -1.9825   -7.5125    0.5071 H   0  0  0  0  0  0  0  0  0  0  0  0
  1  2  1  0  0  0  0
  1  3  2  0  0  0  0
  1 14  1  0  0  0  0
  2  6  2  0  0  0  0
  2 15  1  0  0  0  0
  3  7  1  0  0  0  0
  3 16  1  0  0  0  0
  4  5  2  0  0  0  0
  4 10  1  0  0  0  0
  4 17  1  0  0  0  0
  5 13  1  0  0  0  0
  5 18  1  0  0  0  0
  6  9  1  0  0  0  0
  6 11  1  0  0  0  0
  7 11  1  0  0  0  0
  7 12  2  0  0  0  0
  8  9  1  0  0  0  0
  8 10  2  0  0  0  0
  8 13  1  0  0  0  0
  9 19  1  0  0  0  0
  9 20  1  0  0  0  0
 11 21  1  0  0  0  0
M  END
$$$$
