21
0 1 C9H8N2O2
C                    -0.753253051235    -1.770205092121    -1.172165918732
C                    -0.578904072533    -3.169530478153    -1.402688090243
C                     0.077070093935    -1.075865530254    -0.336537893736
C                     4.246142074189    -5.909870721237    -0.898062394935
C                     3.884830659375    -6.376128549888    -2.122467211500
C                     0.443351710448    -3.814630444533    -0.759089293774
C                     1.179518317481    -1.731265026146     0.348058457328
C                     2.127878720535    -5.657250522168    -1.069315501743
C                     0.686590714136    -5.306624925647    -0.878527516572
N                     3.106975000717    -5.455923872303    -0.234917845512
N                     1.266535662368    -3.113209935950     0.076917944903
O                     1.996112102798    -1.197685188086     1.102125589493
O                     2.521068019233    -6.216653864143    -2.247825207460
H                    -1.564544454442    -1.251095181545    -1.677773121347
H                    -1.237528485475    -3.717910868326    -2.066483617595
H                    -0.039881657445    -0.012691892056    -0.155895198797
H                     5.226968890853    -5.867593817233    -0.445198835252
H                     4.400695808757    -6.819362280276    -2.960510184323
H                     0.103698841520    -5.702239559920    -1.710764452292
H                     0.334970021038    -5.795512557327     0.038103463264
H                     2.064347683744    -3.590582518065     0.499578233735
