
  -OEChem-12102412493D

 21 22  0     0  0  0  0  0  0999 V2000
   -0.7533   -1.7702   -1.1722 C   0  0  0  0  0  0  0  0  0  0  0  0
   -0.5789   -3.1695   -1.4027 C   0  0  0  0  0  0  0  0  0  0  0  0
    0.0771   -1.0759   -0.3365 C   0  0  0  0  0  0  0  0  0  0  0  0
    4.2461   -5.9099   -0.8981 C   0  0  0  0  0  0  0  0  0  0  0  0
    3.8848   -6.3761   -2.1225 C   0  0  0  0  0  0  0  0  0  0  0  0
    0.4434   -3.8146   -0.7591 C   0  0  0  0  0  0  0  0  0  0  0  0
    1.1795   -1.7313    0.3481 C   0  0  0  0  0  0  0  0  0  0  0  0
    2.1279   -5.6573   -1.0693 C   0  0  0  0  0  0  0  0  0  0  0  0
    0.6866   -5.3066   -0.8785 C   0  0  0  0  0  0  0  0  0  0  0  0
    3.1070   -5.4559   -0.2349 N   0  0  0  0  0  0  0  0  0  0  0  0
    1.2665   -3.1132    0.0769 N   0  0  0  0  0  0  0  0  0  0  0  0
    1.9961   -1.1977    1.1021 O   0  0  0  0  0  0  0  0  0  0  0  0
    2.5211   -6.2167   -2.2478 O   0  0  0  0  0  0  0  0  0  0  0  0
   -1.5645   -1.2511   -1.6778 H   0  0  0  0  0  0  0  0  0  0  0  0
   -1.2375   -3.7179   -2.0665 H   0  0  0  0  0  0  0  0  0  0  0  0
   -0.0399   -0.0127   -0.1559 H   0  0  0  0  0  0  0  0  0  0  0  0
    5.2270   -5.8676   -0.4452 H   0  0  0  0  0  0  0  0  0  0  0  0
    4.4007   -6.8194   -2.9605 H   0  0  0  0  0  0  0  0  0  0  0  0
    0.1037   -5.7022   -1.7108 H   0  0  0  0  0  0  0  0  0  0  0  0
    0.3350   -5.7955    0.0381 H   0  0  0  0  0  0  0  0  0  0  0  0
    2.0643   -3.5906    0.4996 H   0  0  0  0  0  0  0  0  0  0  0  0
  1  2  1  0  0  0  0
  1  3  2  0  0  0  0
  1 14  1  0  0  0  0
  2  6  2  0  0  0  0
  2 15  1  0  0  0  0
  3  7  1  0  0  0  0
  3 16  1  0  0  0  0
  4  5  2  0  0  0  0
  4 10  1  0  0  0  0
  4 17  1  0  0  0  0
  5 13  1  0  0  0  0
  5 18  1  0  0  0  0
  6  9  1  0  0  0  0
  6 11  1  0  0  0  0
  7 11  1  0  0  0  0
  7 12  2  0  0  0  0
  8  9  1  0  0  0  0
  8 10  2  0  0  0  0
  8 13  1  0  0  0  0
  9 19  1  0  0  0  0
  9 20  1  0  0  0  0
 11 21  1  0  0  0  0
M  END
$$$$
