17
0 1 C6H7N3O
C                     1.383561138716    -0.034433672226     1.588474980348
C                     0.195224961453    -0.436801883024     0.967886687579
C                     1.722516859003    -0.542889509850     2.839829966737
C                    -0.613439542579    -1.348991563199     1.646035601718
C                     0.830941832706    -1.457064361288     3.429711746420
C                     2.094567967642    -1.881599821317     5.559264143345
N                    -0.312381943631    -1.853947036453     2.849447042859
N                     1.979776063631    -2.625228636662     6.714312253542
N                     1.032567737575    -2.054305175603     4.682221408066
O                     3.054736917817    -1.144660530888     5.350901907836
H                     2.047917705039     0.674621101347     1.100902078864
H                    -0.096533909090    -0.058453846042    -0.006984710547
H                     2.629588929875    -0.260578013590     3.356330229315
H                    -1.548587332617    -1.695072231286     1.208427517213
H                     2.727445152271    -2.535389464883     7.386423419753
H                     1.207200942648    -3.241154052689     6.921455333551
H                     0.275898921530    -2.682303637397     4.928035694984
