
  -OEChem-12102412493D

 23 24  0     0  0  0  0  0  0999 V2000
   -4.2361    4.0513   -2.5687 C   0  0  0  0  0  0  0  0  0  0  0  0
   -4.4972    3.8934   -3.9378 C   0  0  0  0  0  0  0  0  0  0  0  0
   -3.3640    3.1817   -1.9285 C   0  0  0  0  0  0  0  0  0  0  0  0
   -3.8532    2.8446   -4.5942 C   0  0  0  0  0  0  0  0  0  0  0  0
   -2.7531    2.1500   -2.6904 C   0  0  0  0  0  0  0  0  0  0  0  0
   -0.6780   -0.7227   -1.7629 C   0  0  0  0  0  0  0  0  0  0  0  0
   -0.2907    0.2983   -0.6806 C   0  0  0  0  0  0  0  0  0  0  0  0
   -1.2910    0.1471   -2.8688 C   0  0  0  0  0  0  0  0  0  0  0  0
   -1.4336    1.3247   -0.7352 C   0  0  0  0  0  0  0  0  0  0  0  0
   -3.0038    1.9916   -4.0086 N   0  0  0  0  0  0  0  0  0  0  0  0
   -1.8822    1.2623   -2.1233 N   0  0  0  0  0  0  0  0  0  0  0  0
   -4.7149    4.8474   -2.0031 H   0  0  0  0  0  0  0  0  0  0  0  0
   -5.1732    4.5531   -4.4725 H   0  0  0  0  0  0  0  0  0  0  0  0
   -3.1633    3.2837   -0.8677 H   0  0  0  0  0  0  0  0  0  0  0  0
   -4.0255    2.6762   -5.6574 H   0  0  0  0  0  0  0  0  0  0  0  0
    0.1701   -1.3140   -2.1185 H   0  0  0  0  0  0  0  0  0  0  0  0
   -1.4326   -1.4149   -1.3728 H   0  0  0  0  0  0  0  0  0  0  0  0
   -0.1754   -0.1427    0.3131 H   0  0  0  0  0  0  0  0  0  0  0  0
    0.6543    0.7846   -0.9460 H   0  0  0  0  0  0  0  0  0  0  0  0
   -0.5306    0.5110   -3.5733 H   0  0  0  0  0  0  0  0  0  0  0  0
   -2.0540   -0.3695   -3.4557 H   0  0  0  0  0  0  0  0  0  0  0  0
   -2.2473    1.0577   -0.0433 H   0  0  0  0  0  0  0  0  0  0  0  0
   -1.0923    2.3330   -0.4714 H   0  0  0  0  0  0  0  0  0  0  0  0
  1  2  1  0  0  0  0
  1  3  2  0  0  0  0
  1 12  1  0  0  0  0
  2  4  2  0  0  0  0
  2 13  1  0  0  0  0
  3  5  1  0  0  0  0
  3 14  1  0  0  0  0
  4 10  1  0  0  0  0
  4 15  1  0  0  0  0
  5 10  2  0  0  0  0
  5 11  1  0  0  0  0
  6  7  1  0  0  0  0
  6  8  1  0  0  0  0
  6 16  1  0  0  0  0
  6 17  1  0  0  0  0
  7  9  1  0  0  0  0
  7 18  1  0  0  0  0
  7 19  1  0  0  0  0
  8 11  1  0  0  0  0
  8 20  1  0  0  0  0
  8 21  1  0  0  0  0
  9 11  1  0  0  0  0
  9 22  1  0  0  0  0
  9 23  1  0  0  0  0
M  END
$$$$
