23
0 1 C9H11NO2
C                    -3.898944228342     0.668074396068    10.813247012209
C                    -5.213906273118     1.104541018871    10.465530064685
C                    -3.494721960517     0.565020113558    12.116899989649
C                    -6.081105285675     1.426894201056    11.472391627516
C                    -4.389047025526     0.902936630347    13.209329724408
C                    -8.712471594799    -0.004567095667    10.417796264118
C                    -8.539276280625     0.812835743395    11.705249566067
C                    -8.624709845746     1.082381479752     9.343218592441
C                    -7.514132454807     1.880124231832    11.262553056382
N                    -5.663073418857     1.326387626351    12.774006007961
O                    -4.139495964319     0.853122411910    14.417012186567
O                    -7.774224503797     2.119321988539     9.881269665717
H                    -3.203100115120     0.412665676520    10.016811412508
H                    -5.534403112232     1.208598081612     9.437192818446
H                    -2.498244161628     0.236083882204    12.391464410922
H                    -7.892843650233    -0.721101873781    10.310752138900
H                    -9.657221104237    -0.552801104841    10.383562282204
H                    -9.478647433982     1.302401653257    11.981290492301
H                    -8.198887119818     0.215200967231    12.554158007554
H                    -8.184918836455     0.730564112652     8.405160290702
H                    -9.608366178248     1.518231277723     9.127503905266
H                    -7.662085153473     2.825034224844    11.801782210423
H                    -6.291954061396     1.576632597635    13.532166352309
