19
0 1 C8H7N3S
C                     1.378305662874    -0.034689169566     1.583480060781
C                     0.189231828455    -0.438145940222     0.966069355451
C                     1.720343872164    -0.542234515465     2.834869702985
C                    -0.618076436720    -1.351171916185     1.647364884288
C                     3.963029398340    -1.230202228080     6.492419761106
C                     3.569151264375    -2.064870484370     7.494717540918
C                     0.829857802606    -1.456510286290     3.426512997184
C                     2.073682888334    -1.898517817830     5.559378969508
N                    -0.315437169423    -1.855181882057     2.849173278321
N                     3.122234852191    -1.134089956808     5.399924662378
N                     1.033268548122    -2.052242998472     4.676848026250
S                     2.040793101204    -2.803916974327     7.081301025437
H                     2.041040089376     0.674417754420     1.093787116638
H                    -0.105161958298    -0.060918155520    -0.008338324685
H                     2.628517150228    -0.258702159754     3.348807234417
H                    -1.553810322270    -1.697652927999     1.211407552216
H                     4.878494944746    -0.648289052840     6.500327959970
H                     4.063855511411    -2.290956288151     8.429388235367
H                     0.280637777536    -2.681961963548     4.930483869848
