17
0 1 C6H7N3O
C                     1.401196593691    -0.053789656941     1.641370380720
C                     0.231349153780    -0.407074226067     0.956689652349
C                     1.651589078414    -0.615737256486     2.886849997207
C                    -0.627415070378    -1.316151952653     1.574001814300
C                     0.710247496671    -1.526928786731     3.416486353776
C                     0.242654384581    -2.996335439152     5.431868836291
N                    -0.405404312127    -1.870007506587     2.774157878952
N                     0.858479553278    -3.299954028253     6.636265208516
N                     0.988943537809    -2.078938782226     4.676168901385
O                    -0.821414610873    -3.489948496321     5.105661090261
H                     2.108449391858     0.650081566556     1.210224692981
H                    -0.006111472898     0.006400562408    -0.018579861667
H                     2.551792926518    -0.360150992692     3.441747770950
H                    -1.549979539649    -1.622913378126     1.082583064519
H                     0.374430342296    -3.955930253221     7.231499959651
H                     1.738209402807    -2.918409141782     6.951910339292
H                     1.856693222755    -1.758464258515     5.083354291709
