
  -OEChem-12102412493D

 23 24  0     1  0  0  0  0  0999 V2000
    1.6274   -0.2884    0.5989 C   0  0  0  0  0  0  0  0  0  0  0  0
    0.4140    0.4533    0.4899 C   0  0  0  0  0  0  0  0  0  0  0  0
    2.4064   -0.5578   -0.4954 C   0  0  0  0  0  0  0  0  0  0  0  0
    0.0381    0.9055   -0.7495 C   0  0  0  0  0  0  0  0  0  0  0  0
    2.0320   -0.0928   -1.8182 C   0  0  0  0  0  0  0  0  0  0  0  0
   -2.8505    0.2004   -1.8529 C   0  0  0  0  0  0  0  0  0  0  0  0
   -2.5105    1.0043   -0.5900 C   0  0  0  0  0  0  0  0  0  0  0  0
   -2.4457    1.1732   -2.9629 C   0  0  0  0  0  0  0  0  0  0  0  0
   -1.2205    1.7254   -1.0174 C   0  0  2  0  0  0  0  0  0  0  0  0
    0.8245    0.6374   -1.8274 N   0  0  0  0  0  0  0  0  0  0  0  0
    2.6490   -0.2756   -2.8713 O   0  0  0  0  0  0  0  0  0  0  0  0
   -1.3636    1.9727   -2.4236 O   0  0  0  0  0  0  0  0  0  0  0  0
    1.9369   -0.6488    1.5777 H   0  0  0  0  0  0  0  0  0  0  0  0
   -0.1965    0.6643    1.3609 H   0  0  0  0  0  0  0  0  0  0  0  0
    3.3300   -1.1220   -0.4228 H   0  0  0  0  0  0  0  0  0  0  0  0
   -2.2457   -0.7107   -1.8969 H   0  0  0  0  0  0  0  0  0  0  0  0
   -3.9042   -0.0836   -1.9106 H   0  0  0  0  0  0  0  0  0  0  0  0
   -3.2905    1.7440   -0.3820 H   0  0  0  0  0  0  0  0  0  0  0  0
   -2.3742    0.3833    0.2966 H   0  0  0  0  0  0  0  0  0  0  0  0
   -2.0872    0.6773   -3.8694 H   0  0  0  0  0  0  0  0  0  0  0  0
   -3.2672    1.8480   -3.2315 H   0  0  0  0  0  0  0  0  0  0  0  0
   -1.1118    2.6960   -0.5225 H   0  0  0  0  0  0  0  0  0  0  0  0
    0.5248    1.0115   -2.7259 H   0  0  0  0  0  0  0  0  0  0  0  0
  1  2  1  0  0  0  0
  1  3  2  0  0  0  0
  1 13  1  0  0  0  0
  2  4  2  0  0  0  0
  2 14  1  0  0  0  0
  3  5  1  0  0  0  0
  3 15  1  0  0  0  0
  4  9  1  0  0  0  0
  4 10  1  0  0  0  0
  5 10  1  0  0  0  0
  5 11  2  0  0  0  0
  6  7  1  0  0  0  0
  6  8  1  0  0  0  0
  6 16  1  0  0  0  0
  6 17  1  0  0  0  0
  7  9  1  0  0  0  0
  7 18  1  0  0  0  0
  7 19  1  0  0  0  0
  8 12  1  0  0  0  0
  8 20  1  0  0  0  0
  8 21  1  0  0  0  0
  9 12  1  0  0  0  0
  9 22  1  0  0  0  0
 10 23  1  0  0  0  0
M  END
$$$$
