
  -OEChem-12122420533D

 24 25  0     0  0  0  0  0  0999 V2000
    0.3542    0.4617    2.0365 C   0  0  0  0  0  0  0  0  0  0  0  0
    1.2405   -3.1865    9.0256 C   0  0  0  0  0  0  0  0  0  0  0  0
    0.2301   -0.3868    0.9364 C   0  0  0  0  0  0  0  0  0  0  0  0
    0.3220   -2.4952    9.8224 C   0  0  0  0  0  0  0  0  0  0  0  0
    0.5983   -0.1026    3.2911 C   0  0  0  0  0  0  0  0  0  0  0  0
    1.2862   -2.9492    7.6531 C   0  0  0  0  0  0  0  0  0  0  0  0
    0.3676   -1.7656    1.1416 C   0  0  0  0  0  0  0  0  0  0  0  0
   -0.5255   -1.5803    9.1950 C   0  0  0  0  0  0  0  0  0  0  0  0
    0.7209   -1.4958    3.3884 C   0  0  0  0  0  0  0  0  0  0  0  0
    0.3867   -2.0036    7.1313 C   0  0  0  0  0  0  0  0  0  0  0  0
    1.0436   -2.1632    4.7100 C   0  0  0  0  0  0  0  0  0  0  0  0
    0.6158   -2.3172    2.3332 N   0  0  0  0  0  0  0  0  0  0  0  0
   -0.5013   -1.3320    7.8799 N   0  0  0  0  0  0  0  0  0  0  0  0
    0.3214   -1.6551    5.7711 N   0  0  0  0  0  0  0  0  0  0  0  0
    1.8817   -3.0498    4.8033 O   0  0  0  0  0  0  0  0  0  0  0  0
    0.2690    1.5393    1.9233 H   0  0  0  0  0  0  0  0  0  0  0  0
    1.9196   -3.9112    9.4675 H   0  0  0  0  0  0  0  0  0  0  0  0
    0.0378    0.0019   -0.0595 H   0  0  0  0  0  0  0  0  0  0  0  0
    0.2602   -2.6583   10.8940 H   0  0  0  0  0  0  0  0  0  0  0  0
    0.7225    0.5273    4.1675 H   0  0  0  0  0  0  0  0  0  0  0  0
    1.9739   -3.4651    6.9973 H   0  0  0  0  0  0  0  0  0  0  0  0
    0.2767   -2.4575    0.3056 H   0  0  0  0  0  0  0  0  0  0  0  0
   -1.2596   -1.0183    9.7701 H   0  0  0  0  0  0  0  0  0  0  0  0
   -0.4205   -0.9917    5.5764 H   0  0  0  0  0  0  0  0  0  0  0  0
  1  3  1  0  0  0  0
  1  5  2  0  0  0  0
  1 16  1  0  0  0  0
  2  4  1  0  0  0  0
  2  6  2  0  0  0  0
  2 17  1  0  0  0  0
  3  7  2  0  0  0  0
  3 18  1  0  0  0  0
  4  8  2  0  0  0  0
  4 19  1  0  0  0  0
  5  9  1  0  0  0  0
  5 20  1  0  0  0  0
  6 10  1  0  0  0  0
  6 21  1  0  0  0  0
  7 12  1  0  0  0  0
  7 22  1  0  0  0  0
  8 13  1  0  0  0  0
  8 23  1  0  0  0  0
  9 11  1  0  0  0  0
  9 12  2  0  0  0  0
 10 13  2  0  0  0  0
 10 14  1  0  0  0  0
 11 14  1  0  0  0  0
 11 15  2  0  0  0  0
 14 24  1  0  0  0  0
M  END
$$$$
