
  -OEChem-12122420533D

 19 20  0     0  0  0  0  0  0999 V2000
    1.2122    0.1447    1.7698 C   0  0  0  0  0  0  0  0  0  0  0  0
    0.1772   -0.4355    1.0185 C   0  0  0  0  0  0  0  0  0  0  0  0
    1.5950   -0.4380    2.9692 C   0  0  0  0  0  0  0  0  0  0  0  0
   -0.4236   -1.5860    1.5227 C   0  0  0  0  0  0  0  0  0  0  0  0
    0.5216   -4.9234    6.6902 C   0  0  0  0  0  0  0  0  0  0  0  0
   -0.4577   -5.3586    5.8457 C   0  0  0  0  0  0  0  0  0  0  0  0
    0.9171   -1.6049    3.3866 C   0  0  0  0  0  0  0  0  0  0  0  0
    0.7291   -3.3523    5.1519 C   0  0  0  0  0  0  0  0  0  0  0  0
   -0.0693   -2.1659    2.6797 N   0  0  0  0  0  0  0  0  0  0  0  0
    1.1956   -3.7859    6.2981 N   0  0  0  0  0  0  0  0  0  0  0  0
    1.2701   -2.2159    4.5774 N   0  0  0  0  0  0  0  0  0  0  0  0
   -0.5745   -4.3022    4.4583 S   0  0  0  0  0  0  0  0  0  0  0  0
    1.7133    1.0433    1.4195 H   0  0  0  0  0  0  0  0  0  0  0  0
   -0.1497   -0.0085    0.0759 H   0  0  0  0  0  0  0  0  0  0  0  0
    2.3922   -0.0143    3.5745 H   0  0  0  0  0  0  0  0  0  0  0  0
   -1.2305   -2.0755    0.9799 H   0  0  0  0  0  0  0  0  0  0  0  0
    0.7984   -5.3998    7.6247 H   0  0  0  0  0  0  0  0  0  0  0  0
   -1.1075   -6.2178    5.9488 H   0  0  0  0  0  0  0  0  0  0  0  0
    2.0140   -1.8078    5.1306 H   0  0  0  0  0  0  0  0  0  0  0  0
  1  2  1  0  0  0  0
  1  3  2  0  0  0  0
  1 13  1  0  0  0  0
  2  4  2  0  0  0  0
  2 14  1  0  0  0  0
  3  7  1  0  0  0  0
  3 15  1  0  0  0  0
  4  9  1  0  0  0  0
  4 16  1  0  0  0  0
  5  6  2  0  0  0  0
  5 10  1  0  0  0  0
  5 17  1  0  0  0  0
  6 12  1  0  0  0  0
  6 18  1  0  0  0  0
  7  9  2  0  0  0  0
  7 11  1  0  0  0  0
  8 10  2  0  0  0  0
  8 11  1  0  0  0  0
  8 12  1  0  0  0  0
 11 19  1  0  0  0  0
M  END
$$$$
