22
0 1 C9H9N3O
C                    -5.409515184389    -4.771385444976    -6.848999151591
C                    -4.444605531378    -3.890870719808    -6.270858332516
C                    -5.057164655373    -5.987544098359    -7.367563660383
C                    -2.691417508327    -0.088421548366    -4.589766497459
C                    -2.762361894497     0.081647365680    -5.954173633110
C                    -3.134348745147    -4.287909375247    -6.231315904122
C                    -3.677710942540    -6.438907567652    -7.348479323498
C                    -2.299761601141    -2.034082589121    -5.438804121687
C                    -2.002737433226    -3.488964956974    -5.617644322628
N                    -2.405722643485    -1.404747108186    -4.281878421954
N                    -2.503440417248    -1.169592953299    -6.486426617524
N                    -2.795617247827    -5.509209794873    -6.754008482000
O                    -3.237679512166    -7.504091052646    -7.787626318832
H                    -6.451793546034    -4.460973310594    -6.874579821376
H                    -4.732675560504    -2.935291424124    -5.850192290336
H                    -5.781871718238    -6.661624597559    -7.811246752184
H                    -2.826013112724     0.656385622916    -3.816445014355
H                    -2.958567357820     0.944046598058    -6.575066589075
H                    -1.100341045185    -3.618768893478    -6.230656406440
H                    -1.770003062846    -3.889534473266    -4.625657878272
H                    -2.525727641535    -1.416237704472    -7.467534120364
H                    -1.828230500419    -5.819597544769    -6.729941920509
