
  -OEChem-12122420533D

 24 25  0     0  0  0  0  0  0999 V2000
    1.0622   -1.3430    1.0347 C   0  0  0  0  0  0  0  0  0  0  0  0
    1.1279   -3.2817    9.0061 C   0  0  0  0  0  0  0  0  0  0  0  0
    0.1789   -0.2604    1.0389 C   0  0  0  0  0  0  0  0  0  0  0  0
    0.3201   -2.4815    9.8207 C   0  0  0  0  0  0  0  0  0  0  0  0
    1.3512   -1.9792    2.2425 C   0  0  0  0  0  0  0  0  0  0  0  0
    1.1881   -3.0368    7.6359 C   0  0  0  0  0  0  0  0  0  0  0  0
   -0.3806    0.1418    2.2568 C   0  0  0  0  0  0  0  0  0  0  0  0
   -0.4034   -1.4537    9.2120 C   0  0  0  0  0  0  0  0  0  0  0  0
    0.7401   -1.5009    3.4054 C   0  0  0  0  0  0  0  0  0  0  0  0
    0.4162   -1.9740    7.1324 C   0  0  0  0  0  0  0  0  0  0  0  0
    1.0427   -2.1790    4.7217 C   0  0  0  0  0  0  0  0  0  0  0  0
   -0.1101   -0.4612    3.4190 N   0  0  0  0  0  0  0  0  0  0  0  0
   -0.3639   -1.1969    7.8995 N   0  0  0  0  0  0  0  0  0  0  0  0
    0.3818   -1.6171    5.7782 N   0  0  0  0  0  0  0  0  0  0  0  0
    1.8137   -3.1375    4.7846 O   0  0  0  0  0  0  0  0  0  0  0  0
    1.5164   -1.6840    0.1081 H   0  0  0  0  0  0  0  0  0  0  0  0
    1.7103   -4.0944    9.4328 H   0  0  0  0  0  0  0  0  0  0  0  0
   -0.0754    0.2652    0.1231 H   0  0  0  0  0  0  0  0  0  0  0  0
    0.2504   -2.6452   10.8918 H   0  0  0  0  0  0  0  0  0  0  0  0
    2.0273   -2.8246    2.3118 H   0  0  0  0  0  0  0  0  0  0  0  0
    1.7981   -3.6284    6.9670 H   0  0  0  0  0  0  0  0  0  0  0  0
   -1.0726    0.9810    2.2988 H   0  0  0  0  0  0  0  0  0  0  0  0
   -1.0466   -0.8032    9.8027 H   0  0  0  0  0  0  0  0  0  0  0  0
   -0.2200   -0.8266    5.5531 H   0  0  0  0  0  0  0  0  0  0  0  0
  1  3  1  0  0  0  0
  1  5  2  0  0  0  0
  1 16  1  0  0  0  0
  2  4  1  0  0  0  0
  2  6  2  0  0  0  0
  2 17  1  0  0  0  0
  3  7  2  0  0  0  0
  3 18  1  0  0  0  0
  4  8  2  0  0  0  0
  4 19  1  0  0  0  0
  5  9  1  0  0  0  0
  5 20  1  0  0  0  0
  6 10  1  0  0  0  0
  6 21  1  0  0  0  0
  7 12  1  0  0  0  0
  7 22  1  0  0  0  0
  8 13  1  0  0  0  0
  8 23  1  0  0  0  0
  9 11  1  0  0  0  0
  9 12  2  0  0  0  0
 10 13  2  0  0  0  0
 10 14  1  0  0  0  0
 11 14  1  0  0  0  0
 11 15  2  0  0  0  0
 14 24  1  0  0  0  0
M  END
$$$$
