20   
torsion grid (-165,)
C        6.5470331858   -2.5167958881   -1.8434206389
C        6.0694900020   -1.2148877449   -2.0227355383
C        6.0741757392   -3.2805152552   -0.7703573396
C        5.1143400433   -0.6882798693   -1.1496064544
C        5.1414043302   -2.7554476239    0.1268478839
C        4.6512527691   -1.4555617844   -0.0704190191
C        1.5262932879   -2.0140002884   -0.4906558035
N        3.7047264462   -0.8952285244    0.8370504749
O        1.4041519591   -0.6559215189    1.7997685197
O        2.5133236336   -2.9628353109    1.7671839779
S        2.2241371674   -1.6741331766    1.1425083941
H        7.2827740013   -2.9292313250   -2.5281299273
H        6.4302609578   -0.6093425523   -2.8498486261
H        6.4467556072   -4.2897698848   -0.6166372602
H        4.7306300440    0.3186237530   -1.3025505220
H        4.7894710414   -3.3364511121    0.9722043877
H        0.6003483390   -2.5669456525   -0.3241680379
H        2.2358872669   -2.6185767586   -1.0564957874
H        1.3241516680   -1.0646462859   -0.9881228902
H        3.5394755319    0.1021900250    0.7205225838
20   
torsion grid (-150,)
C        6.4651356780   -2.4995928026   -1.9001880872
C        6.0282358970   -1.1761039767   -2.0131662892
C        6.0020518170   -3.2916980873   -0.8428892204
C        5.1190209703   -0.6529465428   -1.0896050614
C        5.1168476077   -2.7700544072    0.1024722882
C        4.6637763034   -1.4484351538   -0.0289624720
C        1.7099131551   -2.1597794182   -0.5213742283
N        3.7560956731   -0.9147961958    0.9326297748
O        1.3491751830   -0.5435567179    1.5542579857
O        2.3932833605   -2.8544578549    1.9368475952
S        2.2209946591   -1.6446461207    1.1363932858
H        7.1642806508   -2.9077303946   -2.6245775064
H        6.3843489238   -0.5506926567   -2.8274035271
H        6.3455685053   -4.3176788709   -0.7410471241
H        4.7648485475    0.3710946898   -1.1905328453
H        4.7730106244   -3.3692719527    0.9401037943
H        0.7172087650   -2.5969978591   -0.4011917072
H        2.4108016715   -2.8995725669   -0.9062789775
H        1.6671123815   -1.2792070388   -1.1632061183
H        3.6044158734    0.0878933925    0.8369069303
20   
torsion grid (-135,)
C        6.4010345956   -2.4667603518   -1.9521944751
C        5.9868314369   -1.1321749126   -2.0040015485
C        5.9528420142   -3.2904567699   -0.9122911450
C        5.1121459582   -0.6263294954   -1.0379445383
C        5.1036520289   -2.7861886500    0.0739952939
C        4.6704858260   -1.4533669426    0.0039158479
C        1.8219075638   -2.2549967291   -0.5143279374
N        3.7975278568   -0.9524727031    1.0136593367
O        1.3535269035   -0.3752651566    1.2942645488
O        2.1771475434   -2.6734470272    2.0753159195
S        2.1893232443   -1.5689291434    1.1197857099
H        7.0730048581   -2.8595000194   -2.7100478441
H        6.3336568215   -0.4838755564   -2.8042076949
H        6.2811614368   -4.3249485539   -0.8572419563
H        4.7737410318    0.4064811615   -1.0917756616
H        4.7753219011   -3.4071184740    0.9030570821
H        0.7714535620   -2.5471801799   -0.4638039759
H        2.4525460328   -3.1210059189   -0.7071902550
H        1.9700172430   -1.4793442148   -1.2659357665
H        3.6992837951    0.0613534832    0.9736094273
20   
torsion grid (-120,)
C        6.3625269098   -2.4258053272   -1.9914912648
C        5.9460270214   -1.0907255359   -1.9893445727
C        5.9370570073   -3.2835249506   -0.9697514503
C        5.0911574088   -0.6177464844   -0.9893866077
C        5.1075671465   -2.8114135857    0.0486677507
C        4.6698917822   -1.4788601394    0.0337345233
C        1.8797688743   -2.3499557910   -0.4858079264
N        3.8168756340   -1.0193473144    1.0820363456
O        1.3979489226   -0.2167768782    1.0154667573
O        1.9197502817   -2.4404393208    2.1606253609
S        2.1407501528   -1.4832488547    1.0798069431
H        7.0192817770   -2.7920966331   -2.7755643697
H        6.2761359202   -0.4161897429   -2.7747698472
H        6.2689131592   -4.3182295380   -0.9543959553
H        4.7491631422    0.4150291356   -1.0028916176
H        4.8018483958   -3.4579689008    0.8669521782
H        0.8045312811   -2.5368741097   -0.5107162501
H        2.4315038460   -3.2880065048   -0.4924371039
H        2.1792055824   -1.7048235816   -1.3114364392
H        3.7915610927   -0.0001325324    1.1225739923
20   
torsion grid (-105,)
C        6.9910549671   -1.8438765039   -0.4872637299
C        6.3609156075   -0.8394466951   -1.2287794775
C        6.2690192857   -2.9827169168   -0.1098030224
C        5.0109830184   -0.9571606046   -1.5726215462
C        4.9291476625   -3.1215541041   -0.4751811484
C        4.2923141318   -2.1006188083   -1.1966005923
C        2.5376010934   -1.4542271360    1.1318937660
N        2.9202022601   -2.2595780544   -1.5529470973
O        1.2133824633   -3.4626499283   -0.0053347148
O        0.7770578767   -1.1061351022   -0.8400295838
S        1.7027387028   -2.1240014242   -0.3246897802
H        8.0376983056   -1.7448317494   -0.2135885220
H        6.9157284380    0.0447863894   -1.5308034494
H        6.7559510681   -3.7746989085    0.4529266960
H        4.5156379376   -0.1647008717   -2.1298763813
H        4.3685052836   -4.0169779954   -0.2201925107
H        1.7333806880   -1.2824414863    1.8496897008
H        3.0261063577   -0.5169819464    0.8657318268
H        3.2508818024   -2.1786624138    1.5204209661
H        2.6345584501   -1.5900990735   -2.2674723359
20   
torsion grid (-90,)
C        7.0087606545   -1.9158755032   -0.5008998964
C        6.4084162420   -0.8719468332   -1.2115694916
C        6.2495835275   -3.0384218195   -0.1485004818
C        5.0534726570   -0.9356443016   -1.5499291256
C        4.9036281974   -3.1245291596   -0.5082494429
C        4.2989091351   -2.0636554944   -1.1998868145
C        2.4685588929   -1.3572761188    1.1105458419
N        2.9215014801   -2.1602502695   -1.5558109197
O        1.5069618623   -3.6023266024    0.0579249123
O        0.6386784859   -1.3811686022   -0.8272192037
S        1.7348194944   -2.2065697593   -0.3076803736
H        8.0594994754   -1.8592664377   -0.2309469104
H        6.9904006024    0.0011524315   -1.4942572964
H        6.7116540618   -3.8601799726    0.3920729678
H        4.5834617922   -0.1129730479   -2.0851423752
H        4.3136858637   -4.0044232661   -0.2671281957
H        1.6764875548   -1.3235999373    1.8607078106
H        2.7554731726   -0.3500968851    0.8071479778
H        3.3242208689   -1.9209474022    1.4786333340
H        2.6270831235   -1.4214035330   -2.1932509246
20   
torsion grid (-75,)
C        7.0454125212   -1.9919125586   -0.5490683790
C        6.4627559999   -0.9093469036   -1.2150841384
C        6.2590008234   -3.0978649942   -0.2054604977
C        5.0984404271   -0.9212331445   -1.5175424008
C        4.9013985621   -3.1326065787   -0.5293477065
C        4.3158168762   -2.0339167141   -1.1776992184
C        2.3508261817   -1.2621453336    1.1100502992
N        2.9304064001   -2.0621563248   -1.5106489363
O        1.7804592561   -3.6626099146    0.1400387265
O        0.5533922648   -1.6437697820   -0.8236333507
S        1.7633384365   -2.2625853473   -0.2771825944
H        8.1039990242   -1.9771357719   -0.3056492433
H        7.0651683681   -0.0478120765   -1.4905266606
H        6.7071433976   -3.9482282394    0.3016697777
H        4.6419789544   -0.0701080534   -2.0191521778
H        4.2903869266   -3.9973114631   -0.2903664414
H        1.6050637764   -1.3774653724    1.8983966318
H        2.4136050989   -0.2220790116    0.7882660723
H        3.3191618977   -1.6377073162    1.4397976694
H        2.6314960010   -1.2860671334   -2.0984174735
20   
torsion grid (-60,)
C        7.1121953625   -2.0676852582   -0.5939231222
C        6.5355824366   -0.9349694736   -1.1765696103
C        6.3075838793   -3.1730897202   -0.2956827303
C        5.1641404502   -0.9010223586   -1.4408170975
C        4.9406592619   -3.1628558086   -0.5823668338
C        4.3641141394   -2.0160182104   -1.1491967231
C        2.1723106203   -1.1165248511    1.0569886154
N        2.9735890756   -1.9828747199   -1.4634573254
O        2.0139866092   -3.6236106761    0.2505717807
O        0.5344296757   -1.8812836229   -0.9032186981
S        1.7950445759   -2.2784904775   -0.2761555303
H        8.1770343431   -2.0909064115   -0.3798166785
H        7.1489862758   -0.0705171867   -1.4162498815
H        6.7487364247   -4.0615417123    0.1482698611
H        4.7142412829   -0.0113564710   -1.8773879155
H        4.3186341204   -4.0255256679   -0.3720747789
H        1.4692642515   -1.3268874930    1.8647237576
H        2.0376868319   -0.1004615100    0.6840175479
H        3.1971107566   -1.2884539078    1.3883961574
H        2.6809595338   -1.2018044363   -2.0461854391
20   
torsion grid (-45,)
C        7.1788401839   -2.1370696777   -0.6757324955
C        6.5949533309   -0.9532205310   -1.1364690587
C        6.3724313767   -3.2547559828   -0.4336326356
C        5.2137155070   -0.8846177646   -1.3346912111
C        4.9946586953   -3.2080858760   -0.6571200788
C        4.4117705954   -2.0123416724   -1.1017249605
C        1.9774512197   -0.9781514506    1.0250597083
N        3.0118997064   -1.9349736199   -1.3618311175
O        2.2382199330   -3.5358511654    0.4647836205
O        0.5598250118   -2.1491927783   -0.8954691042
S        1.8380484213   -2.2990150495   -0.2020175543
H        8.2515646827   -2.1897568468   -0.5117994705
H        7.2096463040   -0.0782852806   -1.3305798958
H        6.8201111431   -4.1811386830   -0.0837711444
H        4.7565963781    0.0426015542   -1.6748511696
H        4.3712413256   -4.0776904704   -0.4875013199
H        1.2826243329   -1.2161569817    1.8324605004
H        1.7073177049   -0.0321180721    0.5538828174
H        3.0032037426   -0.9620789734    1.3965312516
H        2.7054135906   -1.1819261854   -1.9719734947
20   
torsion grid (-30,)
C        7.2260209467   -2.2412103610   -0.8159930425
C        6.7384540353   -1.2454816226   -1.6691097556
C        6.3227486165   -2.9692464675   -0.0378023562
C        5.3713646373   -0.9773005971   -1.7344062758
C        4.9491844761   -2.7152512278   -0.0956930836
C        4.4674951095   -1.7088630241   -0.9462404243
C        1.7447169074   -1.5869252380    1.3167417583
N        3.0975877000   -1.3457928569   -1.0219243862
O        2.0266040301   -3.6206699695   -0.3432408599
O        0.6288029120   -1.6209708593   -1.1019719857
S        1.7751123490   -2.1804762216   -0.3835573317
H        8.2906718682   -2.4500269905   -0.7651735991
H        7.4229035347   -0.6708424694   -2.2875599557
H        6.6830823448   -3.7568448716    0.6187707281
H        5.0017199725   -0.1940657248   -2.3929222765
H        4.2669634742   -3.3277302240    0.4814072305
H        0.9455555314   -2.1282753345    1.8261478608
H        1.5462302404   -0.5155012133    1.3007596487
H        2.7082823872   -1.8032281322    1.7802467861
H        2.8094607101   -0.7983048656   -1.8280179731
20   
torsion grid (-15,)
C        7.2223603686   -2.3276268676   -0.9344337240
C        6.7152597695   -1.4016944284   -1.8507153997
C        6.3673635630   -2.8745436120    0.0274909995
C        5.3698279808   -1.0315233803   -1.8081987784
C        5.0240270144   -2.4990154438    0.0896321259
C        4.5185945248   -1.5717725872   -0.8327616629
C        1.5421752348   -1.7477975125    1.3057457045
N        3.1747869503   -1.1056382207   -0.7786747512
O        2.1823911604   -3.5106255947   -0.5594325528
O        0.7378283455   -1.4995980757   -1.2099735354
S        1.8302523233   -2.0970481163   -0.4372748195
H        8.2670749462   -2.6225410156   -0.9721649164
H        7.3628845623   -0.9710743404   -2.6097802246
H        6.7460749385   -3.6017525245    0.7407687240
H        4.9790863805   -0.3193623521   -2.5320987405
H        4.3778522518   -2.9488813524    0.8347629370
H        0.6990849271   -2.3688347595    1.6139541388
H        1.3067493368   -0.6887160489    1.4079108741
H        2.4370622018   -2.0087361711    1.8712030299
H        2.9140573061   -0.4762350895   -1.5347033002
20   
torsion grid (0,)
C        7.2632664338   -2.3954975703   -1.0340488151
C        6.6940575225   -1.5175845762   -1.9607256055
C        6.4956764952   -2.8510131547    0.0437373114
C        5.3658894418   -1.1077192789   -1.8190985959
C        5.1767363178   -2.4260831770    0.2067504941
C        4.6059572954   -1.5538668391   -0.7295898554
C        1.3933347619   -1.8931197560    1.2361822274
N        3.2743416834   -1.0672101495   -0.5571535083
O        2.4053858656   -3.5261989942   -0.5795587920
O        0.9218794392   -1.5806116458   -1.3517059254
S        1.9404729459   -2.1455749630   -0.4605193042
H        8.2925341010   -2.7229610698   -1.1504619911
H        7.2770725984   -1.1599337181   -2.8051859531
H        6.9281438349   -3.5352585822    0.7687861913
H        4.9187990359   -0.4426991293   -2.5550268248
H        4.5924805118   -2.7789245180    1.0503360059
H        0.5191691839   -2.5304017432    1.3819574731
H        1.1349941677   -0.8419223025    1.3630371176
H        2.2000116820   -2.1853039740    1.9087658222
H        3.0209012807   -0.3509556763   -1.2358088665
20   
torsion grid (15,)
C        7.2871354958   -2.4080157705   -1.1406571576
C        6.6680703758   -1.5134822040   -2.0181409307
C        6.5853685028   -2.8759185520   -0.0235235569
C        5.3530825860   -1.0992269477   -1.7890969733
C        5.2819784359   -2.4457079202    0.2263340250
C        4.6606511469   -1.5574723668   -0.6609053522
C        1.2373509735   -1.8290896363    1.1612715416
N        3.3401517806   -1.0736160302   -0.3902765699
O        2.5223925985   -3.5397356860   -0.3975420566
O        1.1007708857   -1.6991280949   -1.4794171460
S        2.0093187264   -2.1716349669   -0.4285989274
H        8.3055434359   -2.7385749726   -1.3249962878
H        7.2009633421   -1.1464928763   -2.8912105510
H        7.0584398322   -3.5724430551    0.6634930182
H        4.8642221432   -0.4228637418   -2.4871297426
H        4.7432377175   -2.8025708334    1.0978805463
H        0.3480650934   -2.4593561360    1.2198245343
H        0.9658817784   -0.7738469564    1.1972489508
H        1.9466015800   -2.0817217420    1.9493695737
H        3.0874245024   -0.2999888728   -1.0042175611
20   
torsion grid (30,)
C        7.2945519620   -2.4098332720   -1.2338446930
C        6.6265337060   -1.4926065599   -2.0500166715
C        6.6589525890   -2.9117448123   -0.0919615270
C        5.3263402399   -1.0883618071   -1.7344079956
C        5.3711170035   -2.4930365668    0.2441130458
C        4.7017205638   -1.5810494606   -0.5816052526
C        1.0952774654   -1.7508227340    1.0672262577
N        3.3937178284   -1.1149868558   -0.2161677953
O        2.5844807596   -3.5715947894   -0.1635689881
O        1.3038502976   -1.8590607730   -1.5701070337
S        2.0707935870   -2.2191836401   -0.3714825979
H        8.3014753649   -2.7317910425   -1.4848956806
H        7.1090683433   -1.1001012331   -2.9410706121
H        7.1720945292   -3.6257760798    0.5466001907
H        4.7962417632   -0.3953021183   -2.3842748276
H        4.8786824026   -2.8728345548    1.1327773174
H        0.1990275919   -2.3735921367    1.0508442436
H        0.8286559092   -0.6965568411    0.9844144110
H        1.6891049652   -1.9406683816    1.9607999814
H        3.1384711164   -0.2894852608   -0.7588908738
20   
torsion grid (45,)
C        7.2862943792   -2.4086861481   -1.3236502779
C        6.5751102967   -1.4613066063   -2.0657852051
C        6.7118524345   -2.9602473698   -0.1723576532
C        5.2923994539   -1.0758656895   -1.6661367269
C        5.4417328342   -2.5618679273    0.2469335921
C        4.7293488371   -1.6187031762   -0.5044062881
C        0.9876005712   -1.6632305703    0.9643484610
N        3.4367754911   -1.1805218550   -0.0486412390
O        2.5989703354   -3.6109340508    0.1348133926
O        1.5211346885   -2.0801388459   -1.6005838045
S        2.1277427970   -2.2907283778   -0.2802689041
H        8.2797122483   -2.7154353761   -1.6394382443
H        7.0100656161   -1.0305773173   -2.9636345537
H        7.2591524038   -3.6977239183    0.4086029451
H        4.7270173935   -0.3601416899   -2.2590554178
H        4.9938019203   -2.9784182833    1.1422512934
H        0.0924682671   -2.2843687102    0.9004515193
H        0.7429306246   -0.6251794187    0.7345752604
H        1.4612746017   -1.7549750182    1.9410551520
H        3.1684936362   -0.3219547172   -0.5322948479
20   
torsion grid (60,)
C        7.2732498117   -2.3836809373   -1.4036419592
C        6.5340403665   -1.4001773196   -2.0676654935
C        6.7493384696   -2.9900741628   -0.2559582226
C        5.2720646184   -1.0316089695   -1.5935713174
C        5.5005628194   -2.6104259637    0.2389265641
C        4.7614977921   -1.6298247666   -0.4351154960
C        0.9198851343   -1.5498101825    0.8164471877
N        3.4876838628   -1.2224393048    0.1001732090
O        2.5731293951   -3.6026270798    0.4481981113
O        1.7688452662   -2.2999716538   -1.5891870260
S        2.1931454913   -2.3398710969   -0.1844476220
H        8.2504082824   -2.6764495681   -1.7780326610
H        6.9305946980   -0.9284500210   -2.9626639686
H        7.3194700331   -3.7556919373    0.2633368791
H        4.6823359241   -0.2889511569   -2.1266088126
H        5.0881137455   -3.0674546615    1.1316639285
H        0.0317843042   -2.1772138441    0.7239139059
H        0.7152319971   -0.5528828153    0.4228147135
H        1.2668321398   -1.5123957820    1.8484611312
H        3.2029919527   -0.3430762911   -0.3360618461
20   
torsion grid (75,)
C        7.2167017973   -2.1971214960   -1.3202080225
C        6.6881654094   -0.9035316111   -1.2773951096
C        6.3699371582   -3.2988474514   -1.1509464423
C        5.3217115480   -0.7112277343   -1.0557886003
C        5.0001640962   -3.1166144042   -0.9536808252
C        4.4774743439   -1.8180571011   -0.9045268824
C        0.7167844813   -1.8353702448    0.5773408198
N        3.0585979390   -1.6398921302   -0.7325057330
O        2.8454673246   -0.7259623932    1.7317763126
O        2.8794994201   -3.2274599957    1.2831732696
S        2.4904452231   -1.8740222109    0.8884535267
H        8.2806405839   -2.3460466055   -1.4833164253
H        7.3388114231   -0.0421492400   -1.4018456355
H        6.7756481234   -4.3064682252   -1.1823320326
H        4.9139850156    0.2952326439   -0.9911326332
H        4.3339291145   -3.9631130154   -0.8293125970
H        0.2371753738   -1.9735462570    1.5477939062
H        0.4690573245   -2.6501404065   -0.1020608211
H        0.4437183564   -0.8649317161    0.1598301130
H        2.8031125415   -0.6835684088   -0.9867030549
20   
torsion grid (90,)
C        7.1898124458   -2.2670173652   -1.3663116345
C        6.7376382821   -0.9468511160   -1.2838832667
C        6.2842595259   -3.3217093727   -1.2010202909
C        5.3899854414   -0.6803815078   -1.0263036451
C        4.9324916127   -3.0647341932   -0.9683535811
C        4.4863456770   -1.7401264062   -0.8785274270
C        0.7354597959   -2.0032081955    0.5348465774
N        3.0863950464   -1.4778149826   -0.6785371929
O        2.5932796695   -0.5133494041    1.7085405382
O        3.0477332641   -3.0030569806    1.3984072060
S        2.4753974182   -1.7459601563    0.9196876930
H        8.2394513560   -2.4731701695   -1.5572372905
H        7.4339486431   -0.1215946200   -1.4060319034
H        6.6296630907   -4.3501832794   -1.2631863416
H        5.0425800151    0.3463923007   -0.9335681700
H        4.2232259934   -3.8760755829   -0.8476389881
H        0.2312483615   -2.1667001883    1.4888938473
H        0.6521840673   -2.8778118899   -0.1092712205
H        0.3417802832   -1.1096801238    0.0482901616
H        2.8763243621   -0.5039071893   -0.9025661961
20   
torsion grid (105,)
C        7.1528453694   -2.3357925958   -1.3943522745
C        6.7784846561   -0.9939007804   -1.2809699980
C        6.1911796781   -3.3392334412   -1.2267084790
C        5.4538408798   -0.6563923438   -0.9894491459
C        4.8616173266   -3.0095476619   -0.9616227327
C        4.4926786794   -1.6640609922   -0.8393403675
C        0.7971327434   -2.1738203629    0.5006079387
N        3.1182895411   -1.3193791457   -0.6090315655
O        2.3366864925   -0.3647649472    1.6746978511
O        3.1716579624   -2.7773595822    1.5270252882
S        2.4545522018   -1.6391127739    0.9558957811
H        8.1847473232   -2.5983489703   -1.6107200140
H        7.5178226807   -0.2071908436   -1.4048290836
H        6.4753128724   -4.3846072201   -1.3125791921
H        5.1680032586    0.3869936550   -0.8742898817
H        4.1120717858   -3.7841312700   -0.8399140856
H        0.2669093650   -2.3714590022    1.4339749738
H        0.8819176061   -3.0778241800   -0.1017406583
H        0.3084176762   -1.3719908542   -0.0539526594
H        2.9567530592   -0.3280696615   -0.7880194969
20   
torsion grid (120,)
C        7.0952087317   -2.3962056464   -1.4483536870
C        6.8011001714   -1.0361800393   -1.3167774354
C        6.0827520614   -3.3438509463   -1.2579818784
C        5.5072619066   -0.6255803762   -0.9842263468
C        4.7828985122   -2.9394695335   -0.9526937722
C        4.4933165602   -1.5763510390   -0.8107527964
C        0.8912867574   -2.3142400759    0.4272166847
N        3.1534048677   -1.1484395393   -0.5413968811
O        2.0857579565   -0.2696671244    1.6178660972
O        3.2343456495   -2.5592247612    1.6390294496
S        2.4238331895   -1.5426967972    0.9712505511
H        8.1036749402   -2.7157800398   -1.6958282516
H        7.5800547251   -0.2917161925   -1.4579069179
H        6.3031502633   -4.4033244456   -1.3573786416
H        5.2857816643    0.4319489948   -0.8568026546
H        3.9971473176   -3.6750083409   -0.8149752919
H        0.3315744233   -2.5692237445    1.3289873899
H        1.1405508300   -3.2094745641   -0.1423683445
H        0.3381609068   -1.5993062331   -0.1821836485
H        3.0457722445   -0.1411726792   -0.6552743616
20   
torsion grid (135,)
C        7.0140699529   -2.4531774153   -1.4997687565
C        6.7889527444   -1.0800069351   -1.3686906300
C        5.9683900291   -3.3487176727   -1.2492848034
C        5.5338116639   -0.6059578926   -0.9790711870
C        4.7049714422   -2.8821024481   -0.8848309119
C        4.4850533152   -1.5053429240   -0.7445413553
C        0.9993355150   -2.4346785706    0.3508630808
N        3.1894262832   -1.0009609781   -0.4200898266
O        1.8428620818   -0.2466438728    1.5868992236
O        3.2229006895   -2.3970419845    1.7840520254
S        2.3782540610   -1.4859817533    1.0140025028
H        7.9931320434   -2.8223499218   -1.7918136845
H        7.5932763605   -0.3734220270   -1.5550834810
H        6.1333257814   -4.4184430438   -1.3462467692
H        5.3685449113    0.4622997791   -0.8556074285
H        3.8993923426   -3.5853157670   -0.7004063037
H        0.4057991685   -2.7642981498    1.2056128612
H        1.3958820094   -3.2903933480   -0.1958818080
H        0.4163941852   -1.7850446136   -0.3017747771
H        3.1351849841    0.0156949780   -0.4552002477
20   
torsion grid (150,)
C        6.9186310861   -2.4713536100   -1.5912633904
C        6.7106582350   -1.0897614544   -1.5402260159
C        5.9115833636   -3.3289235874   -1.1385406763
C        5.5138499141   -0.5734227759   -1.0410056274
C        4.7044104562   -2.8246285059   -0.6498841837
C        4.5005800307   -1.4381370107   -0.5998006935
C        1.0649377514   -2.4257177166    0.1425466931
N        3.2709746452   -0.8639205008   -0.1730995967
O        1.6306936121   -0.3045157774    1.6326490806
O        3.0368751827   -2.4268787684    1.9048787034
S        2.2894006987   -1.4867671846    1.0712642608
H        7.8529892277   -2.8731906911   -1.9724340323
H        7.4841755722   -0.4067683724   -1.8811380886
H        6.0622630130   -4.4049136494   -1.1628656668
H        5.3631531511    0.5032547932   -0.9965750674
H        3.9490709965   -3.5107940159   -0.2847880246
H        0.4021346851   -2.8888921410    0.8757776052
H        1.5761079879   -3.1878737884   -0.4462853315
H        0.5186479814   -1.7339798224   -0.4982068342
H        3.2754639359    0.1505870805   -0.0958402795
20   
torsion grid (165,)
C        6.8192166167   -2.4899648360   -1.6972722969
C        6.5642886757   -1.1149458022   -1.7392061724
C        5.9329214080   -3.3209463838   -1.0080565565
C        5.4375624521   -0.5822824459   -1.1133086285
C        4.8034971956   -2.8012267286   -0.3681516019
C        4.5478417206   -1.4227615976   -0.4236315144
C        1.1613497117   -2.3362852757   -0.0961252414
N        3.3980859429   -0.8204301194    0.1496208399
O        1.5106881165   -0.4072372710    1.7090869772
O        2.8025882857   -2.5970789767    1.9545318667
S        2.2246223859   -1.5424306316    1.1219833723
H        7.6963235098   -2.9033774516   -2.1866407498
H        7.2431687596   -0.4491814390   -2.2655153222
H        6.1228071673   -4.3895822743   -0.9510335263
H        5.2409318266    0.4865945747   -1.1634973880
H        4.1611245924   -3.4600877422    0.2034841637
H        0.3851525576   -2.8650494691    0.4599534497
H        1.7595694935   -3.0384914751   -0.6785154914
H        0.7310935442   -1.5616850514   -0.7305856187
H        3.4242082944    0.1827187313    0.3073124208
20   
torsion grid (180,)
C        6.6602799877   -2.5236794993   -1.7843886085
C        6.0922934863   -1.2755020257   -2.0569100619
C        6.2241014699   -3.2503730408   -0.6709221794
C        5.0843131578   -0.7687670827   -1.2327867672
C        5.2386643128   -2.7403318674    0.1772463510
C        4.6589626535   -1.4959794613   -0.1106258824
C        1.3326118093   -1.8432596632   -0.4589021333
N        3.6654699058   -0.9383263992    0.7475572791
O        1.5042635030   -0.8371817320    2.0065729793
O        2.5620436141   -3.1092012400    1.5029247217
S        2.2225662202   -1.7430626254    1.1113051847
H        7.4377054256   -2.9234556680   -2.4295108483
H        6.4230813459   -0.6992945289   -2.9169082483
H        6.6664746261   -4.2173685203   -0.4467670627
H        4.6296314455    0.1943914333   -1.4563865124
H        4.9121020179   -3.2929997469    1.0500715866
H        0.4281745114   -2.4262556252   -0.2765086502
H        1.9727656994   -2.3477062799   -1.1842121622
H        1.0790545590   -0.8330099423   -0.7829799994
H        3.5110183447    0.0631335242    0.6636330597
