17   
torsion grid (-90,)
C        1.6200671895   -1.3887178678   -0.0141796039
C        2.8257452683   -1.6908036217    2.0524628529
C        0.6509364912   -0.6512031618    0.6543482450
C        1.8591139256   -0.9506840976    2.7316968614
C        2.7366782380   -1.9184816012    0.6671028494
C        0.7593870239   -0.4239008290    2.0389058539
C        4.0993843708   -2.7351018902   -1.3636939962
C        3.7964512875   -2.6632616273   -0.0246907816
S       -0.5137174349    0.5451240168    2.8168774213
H        1.5381922204   -1.5333544464   -1.0880143160
H        3.6719603444   -2.0911159859    2.6065825349
H       -0.1898360981   -0.2389273957    0.1017465582
H        1.9667001873   -0.7844325766    3.8005719464
H        5.1874427185   -2.8331719020   -1.4807948692
H        3.7263317375   -3.4388318235   -2.1108385397
H        4.6988219330   -2.6102799433    0.5953100357
H       -0.0148351859    0.4963356277    4.0684249356
17   
torsion grid (-75,)
C        1.6551783750   -1.3796456483   -0.0167816681
C        2.8398562600   -1.6753951962    2.0609661170
C        0.6681404062   -0.6585020698    0.6439912789
C        1.8566721276   -0.9499043684    2.7331952677
C        2.7692569617   -1.8998217976    0.6745711770
C        0.7580635661   -0.4353238728    2.0303394082
C        4.1048577012   -2.7407637530   -1.3425745307
C        3.8437418897   -2.6353543927   -0.0060065996
S       -0.5382430612    0.5117603256    2.7981582014
H        1.5848566433   -1.5198214556   -1.0919664534
H        3.6841543160   -2.0683330699    2.6232318702
H       -0.1719846981   -0.2555572705    0.0835607674
H        1.9502770406   -0.7870694077    3.8039329673
H        5.1647299334   -2.9281538067   -1.5439831883
H        3.5498294611   -3.3460088350   -2.0617381815
H        4.7496303972   -2.6116330052    0.6087537732
H       -0.0501931026    0.4687184982    4.0541677816
17   
torsion grid (-60,)
C        1.6907796325   -1.3669698662   -0.0205950209
C        2.8551947930   -1.6588674146    2.0678905975
C        0.6858261379   -0.6637609217    0.6333122271
C        1.8545022612   -0.9507337237    2.7332786234
C        2.8021762533   -1.8783995939    0.6802318409
C        0.7566214232   -0.4476413970    2.0215026214
C        4.0998810171   -2.7662509681   -1.3209057438
C        3.8911197384   -2.6039461426    0.0110164907
S       -0.5630825267    0.4746007689    2.7807497405
H        1.6320527884   -1.5000299064   -1.0972253535
H        3.6980638098   -2.0441489366    2.6375952846
H       -0.1531571971   -0.2690717676    0.0653392915
H        1.9338146509   -0.7932749331    3.8059787413
H        5.1221493715   -3.0219089350   -1.6056174559
H        3.3968465449   -3.2516906338   -1.9991410744
H        4.8011398058   -2.6051373987    0.6176375991
H       -0.0851042871    0.4364226447    4.0407695788
17   
torsion grid (-45,)
C        1.7146795201   -1.3593977902   -0.0252715024
C        2.8703066698   -1.6388884436    2.0686708213
C        0.6965187637   -0.6720280032    0.6255170935
C        1.8563555255   -0.9468632290    2.7313789380
C        2.8275804808   -1.8587662588    0.6809199828
C        0.7557998422   -0.4581062303    2.0143985227
C        4.0984539013   -2.7929504699   -1.3007361252
C        3.9286399757   -2.5764099868    0.0225162019
S       -0.5830442867    0.4413165142    2.7681780665
H        1.6593296482   -1.4904241752   -1.1022024350
H        3.7153889885   -2.0135465783    2.6421855741
H       -0.1450817568   -0.2885898530    0.0537398371
H        1.9276764079   -0.7913180262    3.8049368231
H        5.0794601645   -3.1254506875   -1.6373069893
H        3.2962205454   -3.1220203313   -1.9606417167
H        4.8316659680   -2.6259746946    0.6349073867
H       -0.1111261414    0.4086091182    4.0306275092
17   
torsion grid (-30,)
C        1.7289261310   -1.3530624843   -0.0280542723
C        2.8850719450   -1.6180630059    2.0655742810
C        0.7002400608   -0.6792695295    0.6206269727
C        1.8600905455   -0.9407597576    2.7269394523
C        2.8468455340   -1.8402703770    0.6782977672
C        0.7540823649   -0.4657806250    2.0096323963
C        4.0957734519   -2.8266979699   -1.2837256103
C        3.9574002003   -2.5513609471    0.0273687960
S       -0.5993012552    0.4126964905    2.7626564397
H        1.6715885042   -1.4855967122   -1.1045797368
H        3.7341400645   -1.9812198093    2.6406751738
H       -0.1459140694   -0.3080871000    0.0474645023
H        1.9276428432   -0.7858851327    3.8008186909
H        5.0393436420   -3.2291893697   -1.6452268703
H        3.2495443833   -2.9865673765   -1.9489185523
H        4.8425348534   -2.6560317602    0.6563936697
H       -0.1291849825    0.3843363410    4.0258748882
17   
torsion grid (-15,)
C        1.7341874922   -1.3516412186   -0.0308180280
C        2.8965880592   -1.5971408284    2.0606215365
C        0.6995295894   -0.6885635172    0.6194984252
C        1.8650939667   -0.9319900573    2.7243456844
C        2.8584768976   -1.8250884429    0.6743049394
C        0.7526074285   -0.4716709301    2.0079651563
C        4.0924546967   -2.8606982161   -1.2686786952
C        3.9754878678   -2.5309540930    0.0290950557
S       -0.6117497436    0.3892446685    2.7616427649
H        1.6702633166   -1.4903671968   -1.1061700885
H        3.7514222189   -1.9483032764    2.6345656432
H       -0.1529618686   -0.3303859842    0.0474948640
H        1.9330463386   -0.7751587424    3.7979339898
H        5.0036572079   -3.3221258304   -1.6387795809
H        3.2516249170   -2.8441804681   -1.9582833756
H        4.8395752851   -2.6990219023    0.6725256843
H       -0.1404794531    0.3672369100    4.0245540125
17   
torsion grid (0,)
C        1.7201919177   -1.3788481118   -0.0263003550
C        2.9065013610   -1.5787742309    2.0560628312
C        0.6864420370   -0.7143620905    0.6238358812
C        1.8753227646   -0.9130873341    2.7199211001
C        2.8573191567   -1.8282796331    0.6738833583
C        0.7520845945   -0.4732100097    2.0078000899
C        4.1001819938   -2.8591100155   -1.2660052329
C        3.9756454217   -2.5350072307    0.0315419750
S       -0.6144378419    0.3836855116    2.7621652736
H        1.6376097637   -1.5485991593   -1.0959232568
H        3.7704345359   -1.9124511047    2.6268009709
H       -0.1782356679   -0.3793703369    0.0560995268
H        1.9521050202   -0.7401023054    3.7904221752
H        4.9792840631   -3.3856390362   -1.6258307656
H        3.3440675187   -2.6168474711   -2.0085818093
H        4.7840746754   -2.8181441795    0.7057478457
H       -0.1297670972    0.3873376122    4.0201783798
17   
torsion grid (15,)
C        1.7068474878   -1.4048648579   -0.0203046197
C        2.9163313619   -1.5593592082    2.0533108763
C        0.6736902821   -0.7388661867    0.6294098848
C        1.8853571740   -0.8928780717    2.7164997718
C        2.8559035656   -1.8301479633    0.6755212319
C        0.7516636650   -0.4735327197    2.0082511776
C        4.0957770139   -2.8544049216   -1.2696767898
C        3.9722302529   -2.5374375515    0.0306893715
S       -0.6163987983    0.3803420933    2.7632408304
H        1.6099722293   -1.6074472510   -1.0829933137
H        3.7891042615   -1.8757891339    2.6204253691
H       -0.2028360638   -0.4272041102    0.0665758012
H        1.9701992130   -0.7031552876    3.7835530565
H        4.9399225063   -3.4442937004   -1.6155763018
H        3.4751941676   -2.4103285554   -2.0445574650
H        4.7182863958   -2.9338316599    0.7200067808
H       -0.1224204976    0.4023899602    4.0174423260
17   
torsion grid (30,)
C        1.7045192811   -1.4008508182   -0.0194217291
C        2.9261757234   -1.5375436721    2.0494243725
C        0.6670331219   -0.7451882745    0.6338159282
C        1.8901019323   -0.8828348670    2.7161878591
C        2.8610096040   -1.8126109185    0.6726134163
C        0.7486318570   -0.4772295426    2.0120210306
C        4.0693350071   -2.8777664705   -1.2732580226
C        3.9768024047   -2.5141201070    0.0202563191
S       -0.6268107294    0.3592374839    2.7728380945
H        1.6055075880   -1.6135501267   -1.0799708357
H        3.8054401434   -1.8426078713    2.6127567477
H       -0.2166708179   -0.4463104962    0.0752703106
H        1.9768577963   -0.6911164212    3.7827347471
H        4.8872763186   -3.5218390845   -1.5880946067
H        3.5910891686   -2.3251894323   -2.0795303560
H        4.6807044407   -2.9682933368    0.7190850399
H       -0.1281786230    0.3870048299    4.0250896726
17   
torsion grid (45,)
C        1.7027877081   -1.3812007755   -0.0211185156
C        2.9350375544   -1.5141194896    2.0431690711
C        0.6596143291   -0.7422857931    0.6392131865
C        1.8925805069   -0.8775685682    2.7172942248
C        2.8659339018   -1.7842863571    0.6654797027
C        0.7435490384   -0.4824320363    2.0190287653
C        4.0403834507   -2.9062600006   -1.2777720932
C        3.9810149288   -2.4762076643    0.0019548888
S       -0.6406182654    0.3289009271    2.7906428883
H        1.6049800966   -1.5932909268   -1.0820055964
H        3.8205157811   -1.8108929056    2.6011476250
H       -0.2302873652   -0.4517130345    0.0861189121
H        1.9800638635   -0.6914878454    3.7847876083
H        4.8302717932   -3.6098408787   -1.5379664616
H        3.7184924263   -2.3072314773   -2.1288656179
H        4.6512403768   -2.9682149194    0.7099238583
H       -0.1367359080    0.3573226197    4.0407855417
17   
torsion grid (60,)
C        1.6969532247   -1.3524926241   -0.0251069348
C        2.9416692054   -1.4916503666    2.0332362100
C        0.6494926244   -0.7338113487    0.6469962282
C        1.8941366966   -0.8756323829    2.7181498156
C        2.8669817062   -1.7505862640    0.6535410033
C        0.7366398241   -0.4877049513    2.0294034073
C        4.0153649525   -2.9320912427   -1.2851089802
C        3.9803646899   -2.4303567547   -0.0243471550
S       -0.6547451922    0.2953447128    2.8164452288
H        1.5998093088   -1.5573505286   -1.0876579551
H        3.8334791881   -1.7832314626    2.5837818607
H       -0.2467771523   -0.4485434594    0.1015013213
H        1.9839247427   -0.6998483308    3.7871794514
H        4.7802427165   -3.6905204927   -1.4632029956
H        3.8642878705   -2.3444054572   -2.1911921898
H        4.6206450322   -2.9490324266    0.6944793577
H       -0.1436452212    0.3211042544    4.0637203144
17   
torsion grid (75,)
C        1.6826339008   -1.3292350879   -0.0260215970
C        2.9455769368   -1.4727297934    2.0217039438
C        0.6335249538   -0.7260896760    0.6571813338
C        1.8971169090   -0.8712593801    2.7171389563
C        2.8615035855   -1.7235919955    0.6405578790
C        0.7298254732   -0.4893159014    2.0406974646
C        3.9989237140   -2.9422641715   -1.3037218297
C        3.9697046878   -2.3938836324   -0.0531765617
S       -0.6628117538    0.2721968136    2.8454831534
H        1.5818022184   -1.5304654158   -1.0889814389
H        3.8438986691   -1.7605516840    2.5635515659
H       -0.2701273954   -0.4468794748    0.1207815809
H        1.9929045473   -0.7022660308    3.7867133646
H        4.7356406018   -3.7479695871   -1.3864020127
H        4.0452647626   -2.3926914380   -2.2456613282
H        4.5758075121   -2.9456523538    0.6729693994
H       -0.1423651059    0.2918396834    4.0890041147
17   
torsion grid (90,)
C        1.6709290771   -1.2886186253   -0.0343287262
C        2.9468542630   -1.4566349556    2.0051456505
C        0.6203979300   -0.7087299005    0.6656631761
C        1.8974676001   -0.8770808776    2.7169202578
C        2.8564223037   -1.6859439022    0.6202233082
C        0.7226998897   -0.4953018698    2.0529750880
C        3.9852821149   -2.9573292285   -1.3180887604
C        3.9628165860   -2.3410475420   -0.0894706098
S       -0.6732524163    0.2359601342    2.8785101500
H        1.5681485116   -1.4724368984   -1.1003603978
H        3.8503222360   -1.7468080751    2.5370397339
H       -0.2889710102   -0.4282904906    0.1396815652
H        1.9975161164   -0.7262190906    3.7888149615
H        4.6894112591   -3.8001761078   -1.2846797890
H        4.1992838382   -2.5219056290   -2.2964986543
H        4.5562898790   -2.8877176260    0.6523560051
H       -0.1427939613    0.2474715594    4.1179150293
