11   
torsion grid (-165,)
C        0.6828676634    0.9895198188    0.7670257798
C       -0.5408113961   -0.9915593863    0.2458012303
N       -0.0779275218    0.5058259291   -2.7412815911
N       -1.2695391598   -0.5694862421   -0.9777287045
N       -0.5888337167   -0.0096714083   -1.8542367503
O       -0.2961399356    0.0335343161    1.1707790915
H        0.9530219171    1.5562859263    1.6598883434
H        0.2845129918    1.6810717398    0.0156166291
H        1.5809722501    0.4968659116    0.3670923204
H       -1.2163149972   -1.6808449008    0.7493943499
H        0.3948420337   -1.4975800950   -0.0382687632
11   
torsion grid (-150,)
C        0.6838332240    0.9923365334    0.8128609057
C       -0.5334948565   -0.9605097538    0.2322187172
N       -0.0773833860    0.3175625825   -2.8394421636
N       -1.2938616564   -0.4159226481   -0.9235351377
N       -0.6035625890   -0.0453944329   -1.8883915327
O       -0.2483988099   -0.0081631808    1.2183704792
H        0.9425815265    1.5601907898    1.7080165990
H        0.2449184236    1.6728225954    0.0733218065
H        1.5951894222    0.5403119820    0.3945313004
H       -1.1904842174   -1.6916417241    0.7015533879
H        0.3873130479   -1.4476311341   -0.1254224266
11   
torsion grid (-135,)
C        0.6936753809    0.9994056420    0.8805638900
C       -0.5153735833   -0.9190419388    0.2070754404
N       -0.1601037812    0.1011652875   -2.9685485924
N       -1.2813028274   -0.2806648899   -0.8990256752
N       -0.6446984990   -0.1019898970   -1.9500740999
O       -0.2250912766   -0.0293601172    1.2452823095
H        0.9247284923    1.5505227980    1.7934472272
H        0.2526343607    1.6854803773    0.1475889517
H        1.6207078152    0.5739221185    0.4687572974
H       -1.1613284182   -1.6876929788    0.6318945646
H        0.4028024655   -1.3777847925   -0.1928793782
11   
torsion grid (-120,)
C        0.7052520880    1.0088958959    0.9565426828
C       -0.4888102338   -0.8726158914    0.1723881105
N       -0.2917947874   -0.1284506810   -3.0919595941
N       -1.2355359184   -0.1569088428   -0.9031266388
N       -0.6970755527   -0.1705591383   -2.0203658619
O       -0.2193152457   -0.0369224042    1.2553043990
H        0.9085643671    1.5235820622    1.8968304407
H        0.2805524911    1.7186158951    0.2371394844
H        1.6445710520    0.6012530584    0.5549186397
H       -1.1354922818   -1.6673088234    0.5486253301
H        0.4357341505   -1.3056195214   -0.2422150572
11   
torsion grid (-105,)
C        1.1374006150    0.7431673006    0.8647157251
C       -0.8164846370   -0.4398944077    0.2683070503
N       -0.7109761065   -0.7120054550   -3.0690376466
N       -1.0905051055    0.3505573385   -0.9694734779
N       -0.8740747192   -0.2472162578   -2.0333857931
O       -0.1860205928    0.3465696915    1.2268505418
H        1.5465732922    1.2792550860    1.7223289281
H        1.1253841436    1.4036020453   -0.0095947989
H        1.7650959564   -0.1341220655    0.6505944634
H       -1.7727640213   -0.7466587395    0.6992772277
H       -0.2169786957   -1.3292929273    0.0134997154
11   
torsion grid (-90,)
C        1.1485054692    0.7593192947    0.9300769141
C       -0.7606098263   -0.4307044400    0.2179210768
N       -0.9757351800   -0.8019017272   -3.0976423389
N       -0.9595375466    0.3763613759   -1.0256162133
N       -0.9579581465   -0.2815658621   -2.0754406610
O       -0.1924330253    0.3546701065    1.2121374373
H        1.5016936048    1.2962821500    1.8117214546
H        1.1844639355    1.4196548514    0.0567070361
H        1.7921327105   -0.1145784194    0.7534778055
H       -1.7360369680   -0.7525603198    0.5939543294
H       -0.1378348982   -1.3110154009   -0.0132149052
11   
torsion grid (-75,)
C        1.1537017100    0.7739991758    0.9856342559
C       -0.7037720584   -0.4285952343    0.1692398550
N       -1.2334539322   -0.8459188739   -3.0990163587
N       -0.8168101636    0.3697467180   -1.0913673138
N       -1.0312081293   -0.3060673847   -2.1069470849
O       -0.2021902535    0.3690981030    1.1864768735
H        1.4495022702    1.3194031263    1.8830813164
H        1.2432647047    1.4256709528    0.1098291575
H        1.8077187185   -0.1004974383    0.8578534289
H       -1.6988080747   -0.7569442550    0.4858799537
H       -0.0612946627   -1.3059332805   -0.0165821483
11   
torsion grid (-60,)
C        1.1525609886    0.7892298209    1.0290461148
C       -0.6465833262   -0.4387497672    0.1256544348
N       -1.4756992225   -0.8361333677   -3.0798833823
N       -0.6707285909    0.3261648075   -1.1609839122
N       -1.0941233749   -0.3195132062   -2.1288582458
O       -0.2135612032    0.3864490092    1.1515627979
H        1.3894613387    1.3569068093    1.9301737126
H        1.2981232160    1.4193614022    0.1450957279
H        1.8134665379   -0.0869131177    0.9648722232
H       -1.6582222651   -0.7677531387    0.3844028333
H        0.0119560306   -1.3150876422    0.0029996311
11   
torsion grid (-45,)
C        1.1446208008    0.8055816520    1.0566989141
C       -0.5933336466   -0.4637010853    0.0915884611
N       -1.6849809552   -0.7667180897   -3.0476308098
N       -0.5256151545    0.2424801070   -1.2264954506
N       -1.1407616570   -0.3205873304   -2.1411081163
O       -0.2259369539    0.4028821353    1.1100605902
H        1.3254905886    1.4060208414    1.9495789466
H        1.3431297308    1.4041973845    0.1611766748
H        1.8093264339   -0.0699425688    1.0641110575
H       -1.6189109549   -0.7858569052    0.2983446463
H        0.0736218969   -1.3403945315    0.0477570214
11   
torsion grid (-30,)
C        1.1303854563    0.8222175143    1.0689358926
C       -0.5464247678   -0.5032970556    0.0684551434
N       -1.8465976110   -0.6398798758   -3.0095662179
N       -0.3949837191    0.1236608067   -1.2813550579
N       -1.1712287970   -0.3062528506   -2.1440775079
O       -0.2398288941    0.4151621163    1.0641885587
H        1.2592582034    1.4658325875    1.9405338417
H        1.3777688168    1.3782648049    0.1581846685
H        1.7959859645   -0.0483364777    1.1555946766
H       -1.5816459222   -0.8171532973    0.2336860232
H        0.1239613992   -1.3762566636    0.1095019143
11   
torsion grid (-15,)
C        1.1109446401    0.8393612811    1.0640150584
C       -0.5071192613   -0.5562137619    0.0568582991
N       -1.9573862128   -0.4683747910   -2.9616227037
N       -0.2884438831   -0.0208620717   -1.3213542890
N       -1.1861296394   -0.2781496567   -2.1342957112
O       -0.2549421088    0.4212884837    1.0155231223
H        1.1931301161    1.5326398472    1.9025554869
H        1.4001734864    1.3447269412    0.1361015002
H        1.7765124022   -0.0190889571    1.2327624788
H       -1.5473667125   -0.8648379854    0.1940794656
H        0.1672773023   -1.4165277201    0.1794592278
11   
torsion grid (0,)
C        1.0857275288    0.8559730244    1.0429982561
C       -0.4769353133   -0.6196442830    0.0559272536
N       -2.0101530832   -0.2610988761   -2.9038121930
N       -0.2103666893   -0.1794204515   -1.3443612452
N       -1.1827147449   -0.2365213847   -2.1109735364
O       -0.2721980174    0.4167903284    0.9690905606
H        1.1277553094    1.6018390659    1.8383387269
H        1.4059582051    1.3056736965    0.0966857001
H        1.7542983150    0.0193668987    1.2911425026
H       -1.5182402166   -0.9294453853    0.1781169162
H        0.2035188352   -1.4595510240    0.2509289938
11   
torsion grid (15,)
C        1.0555789245    0.8712014625    1.0082990798
C       -0.4558628023   -0.6875379845    0.0633957993
N       -2.0075204185   -0.0346732363   -2.8327585993
N       -0.1625472643   -0.3424216373   -1.3550741134
N       -1.1614792605   -0.1874294601   -2.0759087825
O       -0.2929020299    0.4063837288    0.9219026938
H        1.0631572554    1.6639577267    1.7581229227
H        1.3986028862    1.2685455225    0.0465432590
H        1.7288130989    0.0623004883    1.3258777464
H       -1.4944606915   -1.0063800097    0.1841136242
H        0.2352704310   -1.4999849918    0.3195683053
11   
torsion grid (30,)
C        1.0200658486    0.8839116739    0.9641285180
C       -0.4410910554   -0.7573379805    0.0760278121
N       -1.9548259182    0.2017588881   -2.7478644600
N       -0.1473464990   -0.4944304339   -1.3565896564
N       -1.1275443456   -0.1295995507   -2.0296518444
O       -0.3163202219    0.3847467562    0.8803743250
H        0.9950002178    1.7234851593    1.6607903929
H        1.3773917154    1.2260521264   -0.0136249069
H        1.7026493228    0.1123982272    1.3476417962
H       -1.4708487185   -1.1002322758    0.2090126791
H        0.2695197828   -1.5367909809    0.3738372796
11   
torsion grid (45,)
C        0.9804306266    0.8950100486    0.9090204277
C       -0.4368670072   -0.8242869760    0.0981224207
N       -1.8452984616    0.4349489382   -2.6549094136
N       -0.1614480669   -0.6375245412   -1.3488079522
N       -1.0761860573   -0.0720486725   -1.9764904305
O       -0.3430936078    0.3585754381    0.8452774407
H        0.9307379765    1.7664361717    1.5638438653
H        1.3347727826    1.1984144577   -0.0825929275
H        1.6799982571    0.1603304101    1.3316416555
H       -1.4536291656   -1.1963105497    0.2551516656
H        0.2972328526   -1.5695831157    0.4238251836
11   
torsion grid (60,)
C        0.9375186218    0.9016048199    0.8539565347
C       -0.4378340000   -0.8854208814    0.1202658506
N       -1.6968321346    0.6537293598   -2.5596195493
N       -0.2080533762   -0.7567723004   -1.3407658648
N       -1.0199290747   -0.0129581921   -1.9224921998
O       -0.3716596696    0.3275000635    0.8192202527
H        0.8639654608    1.8042740623    1.4624879985
H        1.2858230790    1.1638163483   -0.1516159343
H        1.6555109724    0.2085754997    1.3137902347
H       -1.4323713075   -1.2979965734    0.3164089588
H        0.3305115576   -1.5923905969    0.4524456534
11   
torsion grid (75,)
C        0.8939528450    0.9063477372    0.7966592653
C       -0.4484117929   -0.9376921712    0.1484107902
N       -1.5039540389    0.8429125338   -2.4719178333
N       -0.2855636065   -0.8577480903   -1.3269427615
N       -0.9538159537    0.0392774320   -1.8709708054
O       -0.3997421980    0.2962656353    0.8069338377
H        0.8093135959    1.8210716469    1.3852408228
H        1.2128443620    1.1556661389   -0.2220958231
H        1.6409989608    0.2440124852    1.2548668220
H       -1.4155746718   -1.3878125591    0.3934238920
H        0.3566026270   -1.6083391794    0.4704737285
11   
torsion grid (90,)
C        0.8550616186    0.9105141608    0.7520888145
C       -0.4580469418   -0.9767611217    0.1715159973
N       -1.3104155511    0.9808555728   -2.4055375130
N       -0.3963473664   -0.9318315656   -1.3161624103
N       -0.8991348411    0.0791041088   -1.8314786573
O       -0.4231537956    0.2689740226    0.8024953828
H        0.7582533641    1.8368809390    1.3200502236
H        1.1497902889    1.1458407822   -0.2773551626
H        1.6259057380    0.2773874473    1.2115357920
H       -1.3866306167   -1.4687437542    0.4771522167
H        0.3913682320   -1.6082589827    0.4597772516
11   
torsion grid (105,)
C        0.8287321370    0.9122252609    0.7294732442
C       -0.4650066957   -0.9993946513    0.1835165661
N       -1.1463719068    1.0637033783   -2.3747861967
N       -0.5400755410   -0.9772611902   -1.3069355637
N       -0.8687629811    0.1047723495   -1.8111068560
O       -0.4395731818    0.2514171716    0.8003600175
H        0.7179150284    1.8511029719    1.2737439257
H        1.1189180529    1.1285317631   -0.3053619595
H        1.6092953421    0.3028945204    1.2039399438
H       -1.3414713707   -1.5362818067    0.5578880543
H        0.4330512456   -1.5877481583    0.4133507597
11   
torsion grid (120,)
C        0.8130653421    0.9138991041    0.7267511411
C       -0.4698797979   -1.0104148932    0.1860052635
N       -1.0078375452    1.0960377640   -2.3824806789
N       -0.7063170782   -0.9969087166   -1.2884542397
N       -0.8573960873    0.1150914065   -1.8069524173
O       -0.4487998508    0.2402408270    0.8033064848
H        0.6881360046    1.8620790770    1.2515811818
H        1.1094075707    1.1149826755   -0.3092907337
H        1.5962908518    0.3230411659    1.2194966689
H       -1.2835754047   -1.5906807020    0.6286897102
H        0.4735561239   -1.5534060988    0.3354295545
11   
torsion grid (135,)
C        0.8037982888    0.9159814701    0.7387180633
C       -0.4751205890   -1.0124802522    0.1820027831
N       -0.8846624220    1.0829543629   -2.4238262658
N       -0.8783996982   -0.9902221105   -1.2537280240
N       -0.8564215494    0.1114138190   -1.8142704084
O       -0.4526022370    0.2328624540    0.8158022492
H        0.6690411278    1.8668834313    1.2564233291
H        1.1035252919    1.1136944837   -0.2970474198
H        1.5905603808    0.3366928274    1.2394043347
H       -1.2174051116   -1.6354593944    0.6855365733
H        0.5043366469   -1.5083594822    0.2350667204
11   
torsion grid (150,)
C        0.7977917255    0.9210914224    0.7614438498
C       -0.4831009726   -1.0050064844    0.1771410409
N       -0.7664187789    1.0194296342   -2.5022555205
N       -1.0403406171   -0.9561802848   -1.2015472349
N       -0.8554712364    0.0921369693   -1.8332392258
O       -0.4506226002    0.2254773692    0.8457708741
H        0.6657502185    1.8558594951    1.3086776495
H        1.0749537443    1.1513889414   -0.2737922975
H        1.6009819122    0.3373517150    1.2300018587
H       -1.1542426730   -1.6693108515    0.7238354965
H        0.5173694066   -1.4582763167    0.1280454445
11   
torsion grid (165,)
C        0.7830827727    0.9348787143    0.7816438805
C       -0.4997179492   -0.9926933075    0.1857249322
N       -0.6121187802    0.8969615620   -2.6125604670
N       -1.1673012101   -0.8869150130   -1.1351001087
N       -0.8227660315    0.0586289455   -1.8593526912
O       -0.4397526810    0.2043062475    0.9160525992
H        0.6943319602    1.8044568052    1.4350686996
H        0.9511562338    1.2789982259   -0.2451709332
H        1.6394684590    0.3279667950    1.1045528650
H       -1.1231233899   -1.6904354784    0.7453569903
H        0.5033907452   -1.4221918872    0.0478661686
11   
torsion grid (180,)
C        0.7066766123    0.9831836614    0.7533733215
C       -0.5368184689   -1.0020789764    0.2417881495
N       -0.2175869869    0.6735723159   -2.6915864543
N       -1.2137680884   -0.7410690361   -1.0531834969
N       -0.6336568289    0.0067306139   -1.8567640803
O       -0.3747710994    0.1091025586    1.0812590438
H        0.9157131621    1.5703064653    1.6498456182
H        0.4441199667    1.6651249001   -0.0624900736
H        1.6068481286    0.4162515028    0.4774405009
H       -1.2179390145   -1.6684646883    0.7685025121
H        0.4278327463   -1.4986977080    0.0558968945
