20   
torsion grid (-165,)
C       -0.7370300792   -0.6658895933   -0.3366553902
C       -0.9877655636   -0.5772320408   -1.8464523253
C       -1.9856791649   -1.6273906051   -2.3548199742
C       -1.9738846173   -1.7956921162   -3.8784048872
C       -2.9917315610   -2.8226233196   -4.3885619758
C       -2.9608197041   -2.9938593854   -5.9116065892
H       -0.0361108725    0.1056692077    0.0004870203
H       -0.3162796161   -1.6414382174   -0.0671664677
H       -1.6676936132   -0.5403506924    0.2295535045
H       -0.0328937198   -0.7078265150   -2.3731609646
H       -1.3445273965    0.4267265614   -2.1099962197
H       -2.9978422319   -1.3680314710   -2.0157853204
H       -1.7513536310   -2.5966579897   -1.8922962670
H       -0.9661154601   -2.0942669433   -4.1987126690
H       -2.1689095335   -0.8252377950   -4.3566545622
H       -2.8002664476   -3.7907189373   -3.9067629723
H       -3.9993248231   -2.5199898722   -4.0741023562
H       -3.6971715997   -3.7320000745   -6.2478734133
H       -3.1809043069   -2.0476605202   -6.4197085215
H       -1.9737070281   -3.3287383212   -6.2512905448
20   
torsion grid (-150,)
C       -0.4646343540   -0.7613649075   -0.4257333887
C       -0.9622964561   -0.5078164043   -1.8537168455
C       -1.9797211397   -1.5575917931   -2.3390973845
C       -1.9438613210   -1.7920977158   -3.8538810855
C       -2.9808619743   -2.8107423955   -4.3408486000
C       -2.9195987368   -3.0546043404   -5.8530596480
H        0.2408187710    0.0119618653   -0.1019847127
H        0.0443993940   -1.7296666164   -0.3586181802
H       -1.2951027565   -0.7750926725    0.2903712698
H       -0.0961731114   -0.5127420448   -2.5286992178
H       -1.3964400937    0.4966073776   -1.9301260277
H       -2.9924482902   -1.2705134309   -2.0274281483
H       -1.7727495631   -2.5140496134   -1.8389340193
H       -0.9385643109   -2.1330073228   -4.1375263909
H       -2.0996165288   -0.8384217807   -4.3783114716
H       -2.8309757661   -3.7603368980   -3.8098934859
H       -3.9856329576   -2.4635428811   -4.0658813371
H       -3.6710632921   -3.7847520104   -6.1729407534
H       -3.0973398485   -2.1271246964   -6.4099038264
H       -1.9359960021   -3.4354775871   -6.1520144839
20   
torsion grid (-135,)
C       -0.3171035347   -0.8540705836   -0.4816598657
C       -0.9959188733   -0.4377214686   -1.7923411626
C       -2.0313319718   -1.4673409871   -2.3009187996
C       -1.9219743526   -1.7587364351   -3.8026327110
C       -2.9586587303   -2.7682634380   -4.3082316366
C       -2.8301723207   -3.0620519701   -5.8073115048
H        0.4045768858   -0.1014431847   -0.1447791126
H        0.2196342551   -1.8016892334   -0.6065937481
H       -1.0516321049   -0.9944052790    0.3202684548
H       -0.2195479315   -0.3020459157   -2.5562368329
H       -1.4682598787    0.5441690644   -1.6708008084
H       -3.0485946379   -1.1314136265   -2.0636564429
H       -1.8970077869   -2.4127459059   -1.7579289244
H       -0.9123295335   -2.1344867273   -4.0199790004
H       -2.0241408464   -0.8207950240   -4.3668190660
H       -2.8581322649   -3.7034755782   -3.7413266840
H       -3.9667570343   -2.3892938985   -4.0938698929
H       -3.5819061229   -3.7858988648   -6.1405992050
H       -2.9595409290   -2.1494746602   -6.4008895555
H       -1.8423179245   -3.4733929878   -6.0457351405
20   
torsion grid (-120,)
C       -0.2469611361   -0.8331121893   -0.6062247346
C       -1.0763029110   -0.3166904244   -1.7887461847
C       -2.1324179257   -1.3339999638   -2.2882349732
C       -1.9419194950   -1.7454511587   -3.7535746143
C       -2.9716161389   -2.7703002849   -4.2418854165
C       -2.7667740399   -3.1774819579   -5.7055496049
H        0.5019941687   -0.0993135632   -0.2876943887
H        0.2813635961   -1.7564025991   -0.8724418724
H       -0.8856762216   -1.0555971648    0.2564250078
H       -0.3987083831   -0.0615328920   -2.6130336994
H       -1.5630906546    0.6229707028   -1.5028891224
H       -3.1427103790   -0.9253802778   -2.1618304259
H       -2.0970538093   -2.2354856361   -1.6623852697
H       -0.9305655088   -2.1565094313   -3.8832552250
H       -1.9894657599   -0.8511255005   -4.3905317326
H       -2.9244332861   -3.6622105057   -3.6029361273
H       -3.9810746189   -2.3572398610   -4.1139382788
H       -3.5157702034   -3.9092430831   -6.0275141346
H       -2.8410129096   -2.3093333775   -6.3708965653
H       -1.7772261602   -3.6247412969   -5.8559975363
20   
torsion grid (-105,)
C       -0.1781746866   -0.9199469856   -0.7339766692
C       -1.1365590912   -0.2754504999   -1.7439033087
C       -2.2085215688   -1.2557103521   -2.2760912802
C       -1.9391898739   -1.7331354096   -3.7091111918
C       -2.9632084980   -2.7532848692   -4.2188490963
C       -2.6913360327   -3.2113159377   -5.6563561699
H        0.5931344490   -0.2156210975   -0.4027300150
H        0.3297144699   -1.7891176008   -1.1693458992
H       -0.7206499936   -1.2650681692    0.1535156990
H       -0.5632731101    0.1329857519   -2.5852331593
H       -1.6208891796    0.5842861337   -1.2658832965
H       -3.1977561700   -0.7813974095   -2.2501873356
H       -2.2763293021   -2.1252286148   -1.6093424857
H       -0.9326262572   -2.1723024953   -3.7641603323
H       -1.9274998839   -0.8633194515   -4.3802626008
H       -2.9680223697   -3.6248289934   -3.5508466020
H       -3.9691200423   -2.3168503375   -4.1570105559
H       -3.4366900488   -3.9399564654   -5.9935063040
H       -2.7146773461   -2.3641412092   -6.3517975756
H       -1.7040975775   -3.6804539546   -5.7409976876
20   
torsion grid (-90,)
C       -0.0025775065   -0.6256492078   -0.9450262416
C       -1.1464695993   -0.0034753557   -1.7568199660
C       -2.2016091664   -1.0336222075   -2.2069197373
C       -1.8970583005   -1.6628848990   -3.5728492647
C       -2.9076971116   -2.7369951838   -3.9909034344
C       -2.6067065941   -3.3430408414   -5.3664466870
H        0.7505859512    0.1219163903   -0.6724426887
H        0.5056525266   -1.4166650683   -1.5090879971
H       -0.3820971631   -1.0719769356   -0.0188475372
H       -0.7432021097    0.5155016295   -2.6355334394
H       -1.6264828160    0.7684636157   -1.1428389154
H       -3.1865591781   -0.5520753703   -2.2637920245
H       -2.2935405984   -1.8212964933   -1.4472153274
H       -0.8894377752   -2.1019313528   -3.5621625412
H       -1.8745864412   -0.8699912250   -4.3330513555
H       -2.9223154347   -3.5330256059   -3.2346863389
H       -3.9161149776   -2.3019589116   -3.9945287866
H       -3.3432436299   -4.1069505725   -5.6386794047
H       -2.6190862518   -2.5742381353   -6.1479157039
H       -1.6166244548   -3.8135658895   -5.3823062895
20   
torsion grid (-75,)
C        0.0206663085   -0.7565139259   -1.0670940441
C       -1.2167270750   -0.0757734206   -1.6672048968
C       -2.2679108818   -1.0615310409   -2.2034816653
C       -1.8866612025   -1.7207674257   -3.5353638332
C       -2.9508841779   -2.6933134576   -4.0575963101
C       -2.5706574941   -3.3388191078   -5.3949759611
H        0.7339870192   -0.0185120104   -0.6841188466
H        0.5470588415   -1.3691268771   -1.8069954881
H       -0.2610479018   -1.4117819471   -0.2344993510
H       -0.9126099904    0.6052180890   -2.4729970360
H       -1.6786699418    0.5526297816   -0.8953159987
H       -3.2200117232   -0.5314345001   -2.3399063950
H       -2.4572323193   -1.8375236219   -1.4488263345
H       -0.9347039827   -2.2576810472   -3.4297467147
H       -1.7126186746   -0.9369176063   -4.2858321568
H       -3.1224714992   -3.4772159569   -3.3080241446
H       -3.9053547364   -2.1610064193   -4.1655181952
H       -3.3488366049   -4.0259515994   -5.7449119944
H       -2.4222030488   -2.5795064691   -6.1717220125
H       -1.6377523521   -3.9079879735   -5.3075383444
20   
torsion grid (-60,)
C        0.1580721381   -0.9186173963   -1.1134797936
C       -1.1467144105   -0.1921067734   -1.4652471164
C       -2.2173090756   -1.0883762220   -2.1072537779
C       -1.7928718911   -1.7485689836   -3.4251568238
C       -2.9227691624   -2.5424886154   -4.0920594511
C       -2.4940463826   -3.2125150020   -5.4024286462
H        0.8483271933   -0.2530624468   -0.5837729385
H        0.6741781612   -1.2832313106   -2.0071931656
H       -0.0344595089   -1.7825407231   -0.4656258218
H       -0.9232949537    0.6429712548   -2.1429973548
H       -1.5643213440    0.2572724984   -0.5554851089
H       -3.1201799659   -0.4886904952   -2.2841145141
H       -2.5074538756   -1.8713962477   -1.3922705375
H       -0.9425866665   -2.4196971939   -3.2509597274
H       -1.4344782920   -0.9755101037   -4.1201915260
H       -3.2887402909   -3.3060269686   -3.3927153579
H       -3.7717066989   -1.8727366824   -4.2832079137
H       -3.3197512491   -3.7709514976   -5.8568991408
H       -2.1522959073   -2.4692988962   -6.1323435300
H       -1.6686799412   -3.9144991370   -5.2353786536
20   
torsion grid (-45,)
C        0.1110274863   -0.8131662950   -1.2728636558
C       -1.2681583647   -0.1688397028   -1.4648401378
C       -2.3110216332   -1.0623769977   -2.1624311266
C       -1.8053867041   -1.8116625369   -3.4015487887
C       -2.9119901228   -2.5935024382   -4.1199342342
C       -2.4058502996   -3.3600508920   -5.3471122723
H        0.7710480078   -0.1539983650   -0.6984609398
H        0.5995146080   -1.0156115996   -2.2306589231
H        0.0377271441   -1.7636121962   -0.7298592884
H       -1.1394777441    0.7511551574   -2.0513653519
H       -1.6663833813    0.1462684747   -0.4927142667
H       -3.1790363431   -0.4483525452   -2.4352429721
H       -2.6821212198   -1.8057610353   -1.4423022660
H       -1.0071373429   -2.5070148046   -3.1153265858
H       -1.3518561644   -1.0991466403   -4.1060615690
H       -3.3736222196   -3.2963869837   -3.4135269338
H       -3.7076062185   -1.9001058995   -4.4230462414
H       -3.2160271261   -3.9079015857   -5.8407415979
H       -1.9664083106   -2.6782851512   -6.0846883739
H       -1.6335451730   -4.0864716388   -5.0682101607
20   
torsion grid (-30,)
C        0.0185572218   -0.7962641449   -1.3621107298
C       -1.4092494593   -0.2357841510   -1.4180327347
C       -2.4280971928   -1.0700873471   -2.2311678601
C       -1.8549727290   -1.8718025561   -3.4070359571
C       -2.9352587949   -2.6269940115   -4.1909522910
C       -2.3682458304   -3.4474778048   -5.3550156174
H        0.6547448936   -0.1601193210   -0.7369530253
H        0.4731029978   -0.8436472169   -2.3559582631
H        0.0441836465   -1.8066935389   -0.9364955092
H       -1.3515372341    0.7710338041   -1.8526842613
H       -1.7917285936   -0.0983729539   -0.4000299833
H       -3.2256081645   -0.4091664335   -2.5925015220
H       -2.9189050979   -1.7854444608   -1.5563254032
H       -1.1125803645   -2.5903175917   -3.0398543298
H       -1.3179862761   -1.2016726364   -4.0936966297
H       -3.4807078391   -3.2903602437   -3.5063958419
H       -3.6740742680   -1.9102038940   -4.5731462291
H       -3.1599590008   -3.9770859090   -5.8962133889
H       -1.8455514691   -2.8049272930   -6.0732218163
H       -1.6503720779   -4.1953178977   -4.9981799871
20   
torsion grid (-15,)
C       -0.1237179106   -0.7307431041   -1.4800534705
C       -1.5909696800   -0.2806879677   -1.4211003755
C       -2.5919750962   -1.0608957572   -2.3207104723
C       -1.9863818876   -1.9421529248   -3.4223027198
C       -3.0552186272   -2.6727839848   -4.2442768080
C       -2.4619861276   -3.5630264610   -5.3422024684
H        0.4883989226   -0.1114936792   -0.8150720690
H        0.2891435181   -0.6394461311   -2.4891262337
H        0.0004693506   -1.7724957700   -1.1634771821
H       -1.6191199323    0.7801274975   -1.6994897191
H       -1.9358555471   -0.3201198025   -0.3818055839
H       -3.2938607016   -0.3529477682   -2.7775727657
H       -3.2064783744   -1.7125415478   -1.6854363197
H       -1.3093207703   -2.6823504973   -2.9791835081
H       -1.3720892002   -1.3336274302   -4.1000073348
H       -3.6738741343   -3.2825615478   -3.5723031126
H       -3.7323725331   -1.9356645002   -4.6959097937
H       -3.2457703696   -4.0745553194   -5.9115921893
H       -1.8663573754   -2.9740254012   -6.0494346870
H       -1.8046401201   -4.3300643366   -4.9161918791
20   
torsion grid (0,)
C       -0.2850904079   -0.6816844543   -1.6252670303
C       -1.7747833629   -0.3629463267   -1.4259760479
C       -2.7792169463   -1.0759154039   -2.3822805238
C       -2.1859627581   -2.0277737148   -3.4313942531
C       -3.2630708482   -2.6776136320   -4.3086472730
C       -2.6839202378   -3.6241674785   -5.3663074328
H        0.3193363137   -0.1222868468   -0.9026723077
H        0.0633404111   -0.4074441753   -2.6262443647
H       -0.0703142242   -1.7451195031   -1.4789465943
H       -1.9054837070    0.7215532158   -1.5148015126
H       -2.0370124802   -0.6044474094   -0.3894171573
H       -3.3690241635   -0.3175150771   -2.9119906325
H       -3.5041896370   -1.6417821004   -1.7844386562
H       -1.6045548148   -2.8179673505   -2.9395214649
H       -1.4815097735   -1.4869894925   -4.0760372283
H       -3.9666268549   -3.2281481727   -3.6699748554
H       -3.8510362422   -1.8922125820   -4.8020864438
H       -3.4736049311   -4.0740029511   -5.9780596643
H       -2.0015572977   -3.0931237775   -6.0403003486
H       -2.1184531767   -4.4392390811   -4.8996041291
20   
torsion grid (15,)
C       -0.8049152933   -0.0378416610   -1.4465810685
C       -0.3751471148   -1.5118321156   -1.4853675086
C       -1.2162755566   -2.4554458913   -2.3920815286
C       -2.1439290481   -1.7830714622   -3.4139594232
C       -2.9325819346   -2.7990274396   -4.2492649426
C       -3.8692086924   -2.1390688306   -5.2676372874
H       -0.1426721284    0.5314850366   -0.7850236901
H       -1.8268317749    0.0833254652   -1.0698891708
H       -0.7596243219    0.4248811702   -2.4369616957
H       -0.3660329676   -1.9088837368   -0.4641419689
H        0.6692664046   -1.5392929167   -1.8201340514
H       -1.8435708944   -3.0932368500   -1.7552511596
H       -0.5438712587   -3.1420582993   -2.9202791303
H       -1.5618913998   -1.1427689024   -4.0908545883
H       -2.8496309755   -1.1201327967   -2.8990265261
H       -2.2303958904   -3.4615839936   -4.7725320510
H       -3.5162340719   -3.4433775725   -3.5782395795
H       -4.4215927822   -2.8860922243   -5.8481646743
H       -4.6029023889   -1.4945990390   -4.7693520805
H       -3.3084844688   -1.5156440909   -5.9738973070
20   
torsion grid (30,)
C       -0.8620304266    0.0990300655   -1.3183423434
C       -0.3273401617   -1.3311101231   -1.4755123273
C       -1.2182863232   -2.2962686917   -2.2940385769
C       -2.0708647477   -1.6535354791   -3.3958047317
C       -2.8822483178   -2.6825549526   -4.1924429918
C       -3.7530479802   -2.0462886590   -5.2817610945
H       -0.1846030980    0.6942130227   -0.6961795499
H       -1.8485442135    0.1157966641   -0.8395084083
H       -0.9537878851    0.6043776082   -2.2841550763
H       -0.1433229107   -1.7668804108   -0.4867031493
H        0.6563888057   -1.2641454790   -1.9589666110
H       -1.9052372650   -2.8117437996   -1.6081637531
H       -0.5893739049   -3.0826568712   -2.7293142707
H       -1.4289734121   -1.0907595930   -4.0887622728
H       -2.7578384116   -0.9217528718   -2.9544500614
H       -2.1977194056   -3.4099776918   -4.6484965750
H       -3.5176280274   -3.2537584595   -3.5023661020
H       -4.3221476977   -2.8024391922   -5.8336228219
H       -4.4702182982   -1.3380837902   -4.8504239330
H       -3.1405479435   -1.4958209023   -6.0054527384
20   
torsion grid (45,)
C       -0.8728410781    0.1869146477   -1.2238054200
C       -0.2607628331   -1.1888070648   -1.5186238264
C       -1.2052776776   -2.1830626106   -2.2200238896
C       -2.0097940769   -1.6051204525   -3.3910266629
C       -2.8448265153   -2.6633948829   -4.1222561365
C       -3.6659941232   -2.0853309289   -5.2803870241
H       -0.1746837770    0.8081589648   -0.6522286572
H       -1.7949346226    0.0981438984   -0.6360663470
H       -1.1169850938    0.7263267130   -2.1438070622
H        0.0980451330   -1.6402486832   -0.5856924364
H        0.6295082562   -1.0421209736   -2.1454091804
H       -1.9160332832   -2.5809334102   -1.4814825627
H       -0.6197232705   -3.0437938268   -2.5681163736
H       -1.3277670206   -1.1253344797   -4.1082096449
H       -2.6769419887   -0.8136931816   -3.0288169901
H       -2.1804585480   -3.4512822991   -4.5011080596
H       -3.5172356218   -3.1515233209   -3.4040923305
H       -4.2509901099   -2.8621303820   -5.7849252984
H       -4.3651015036   -1.3192105734   -4.9250892568
H       -3.0166486379   -1.6173106997   -6.0295466543
20   
torsion grid (60,)
C       -0.9694124005    0.2272703922   -1.0568128754
C       -0.2822465983   -1.0669890508   -1.5114792089
C       -1.2268952057   -2.0918372556   -2.1587577539
C       -1.9477221850   -1.5921872380   -3.4171806605
C       -2.7923708463   -2.6762887649   -4.0976421858
C       -3.5225610740   -2.1726190139   -5.3478202003
H       -0.2668078546    0.8809923387   -0.5286090850
H       -1.8015510629    0.0129074850   -0.3750940794
H       -1.3717477498    0.7930038190   -1.9030423366
H        0.2070785712   -1.5362619421   -0.6487231625
H        0.5200183624   -0.8198848828   -2.2199475531
H       -1.9762810662   -2.4081419210   -1.4192460152
H       -0.6511355507   -2.9920634888   -2.4120798786
H       -1.2062002441   -1.2086214213   -4.1328354282
H       -2.5957681413   -0.7434258668   -3.1654203419
H       -2.1465548070   -3.5228202629   -4.3661685563
H       -3.5242802816   -3.0677630914   -3.3785703647
H       -4.1164067947   -2.9668141479   -5.8134215939
H       -4.2021655561   -1.3479773170   -5.1028282210
H       -2.8128974182   -1.8035166620   -6.0975403295
20   
torsion grid (75,)
C       -0.8239839770    0.1483600877   -1.0384068114
C       -0.1843804533   -1.0758498450   -1.7069014611
C       -1.2045764874   -2.1026134718   -2.2259677240
C       -1.9231889802   -1.6762558530   -3.5126960339
C       -2.9300287255   -2.7161999435   -4.0185542398
C       -3.6364824486   -2.2899832683   -5.3104880324
H       -0.0618649521    0.8432468295   -0.6690233148
H       -1.4425038122   -0.1531330667   -0.1848780615
H       -1.4651814988    0.7023786962   -1.7324911107
H        0.4758300728   -1.5658388054   -0.9801949419
H        0.4599878244   -0.7531163291   -2.5352479088
H       -1.9452642780   -2.3083050756   -1.4407542164
H       -0.6904525240   -3.0542908215   -2.4159175000
H       -1.1744943279   -1.4865927309   -4.2946289740
H       -2.4449231633   -0.7233267122   -3.3534485893
H       -2.4125304625   -3.6710220842   -4.1814254398
H       -3.6779427787   -2.9046951699   -3.2369527741
H       -4.3480815081   -3.0510419329   -5.6489903913
H       -4.1908871365   -1.3550784105   -5.1673041723
H       -2.9147720867   -2.1249374994   -6.1190800254
20   
torsion grid (90,)
C       -0.6728088383    0.0538043669   -0.9094789473
C       -0.1109361240   -1.0537713209   -1.8106857696
C       -1.1790496968   -2.0705944574   -2.2604812986
C       -1.8728647703   -1.6867781897   -3.5741754980
C       -2.9825441605   -2.6602844309   -3.9874185567
C       -3.6537231543   -2.2798157032   -5.3120951120
H        0.0993381607    0.7820162588   -0.6376190243
H       -1.0767862258   -0.3680569534    0.0178214301
H       -1.4837982340    0.6009943094   -1.4045031388
H        0.6840050096   -1.5751612673   -1.2634230990
H        0.3683917330   -0.6116154918   -2.6932061872
H       -1.9279838630   -2.1921915513   -1.4665387768
H       -0.7163594344   -3.0572745877   -2.3932533350
H       -1.1198188766   -1.6345805522   -4.3724799460
H       -2.2951366194   -0.6755796505   -3.4885063669
H       -2.5639262540   -3.6725983431   -4.0658769620
H       -3.7388058007   -2.7043902576   -3.1925190303
H       -4.4419166898   -2.9912336570   -5.5818928845
H       -4.1090622702   -1.2843343974   -5.2521688396
H       -2.9263651470   -2.2609967604   -6.1321565448
20   
torsion grid (105,)
C       -0.9578197408   -0.1285173220   -0.6928888966
C       -0.3812051861   -1.0409148582   -1.7832441184
C       -1.4041428021   -2.0708516332   -2.3180952660
C       -1.9505235879   -1.7207428239   -3.7083875041
C       -3.0113915497   -2.7034672126   -4.2162888411
C       -3.5385962349   -2.3508371319   -5.6119395105
H       -0.2254474243    0.6152722523   -0.3595345929
H       -1.2651504769   -0.7122348861    0.1822411744
H       -1.8402624016    0.4126017178   -1.0554363736
H        0.4943808512   -1.5606216963   -1.3764518304
H       -0.0077927194   -0.4296624855   -2.6140550526
H       -2.2391008180   -2.1622925462   -1.6112021704
H       -0.9445727089   -3.0661015751   -2.3681163950
H       -1.1163683185   -1.6851127908   -4.4225838488
H       -2.3762296946   -0.7071144133   -3.6883755702
H       -2.5880543418   -3.7167649960   -4.2293514287
H       -3.8473283413   -2.7320429245   -3.5047882763
H       -4.2951512643   -3.0680850519   -5.9485697560
H       -3.9960525106   -1.3545697926   -5.6208732899
H       -2.7288456134   -2.3486281115   -6.3509847388
20   
torsion grid (120,)
C       -0.8655981073   -0.2050089240   -0.5735707523
C       -0.4237585926   -0.9778691708   -1.8226988982
C       -1.4817616495   -1.9932163861   -2.3221850466
C       -1.9651548732   -1.7209819962   -3.7522275544
C       -3.0296995203   -2.7104373144   -4.2388085989
C       -3.5085193953   -2.4240225102   -5.6666629465
H       -0.1047976585    0.5167447397   -0.2555920661
H       -1.0532498701   -0.8851016396    0.2654059426
H       -1.7930469938    0.3483570460   -0.7635405436
H        0.5216958014   -1.4909970103   -1.6118539124
H       -0.2009002584   -0.2613822399   -2.6231178145
H       -2.3491431087   -1.9790819748   -1.6490843736
H       -1.0829398886   -3.0139113326   -2.2696300700
H       -1.1056845893   -1.7466069874   -4.4366599163
H       -2.3665636586   -0.6990240087   -3.8078672223
H       -2.6263510588   -3.7304373795   -4.1849040610
H       -3.8866606781   -2.6853102704   -3.5525342611
H       -4.2674625254   -3.1456633805   -5.9881758921
H       -3.9474860938   -1.4222861375   -5.7422475999
H       -2.6770662593   -2.4744783253   -6.3794180901
20   
torsion grid (135,)
C       -0.8817400132   -0.2814686396   -0.4517230696
C       -0.5438640283   -0.8959562826   -1.8156391610
C       -1.6142236154   -1.8899690493   -2.3227060765
C       -1.9806252150   -1.6983206465   -3.7995390126
C       -3.0307886593   -2.6940163763   -4.3047482345
C       -3.3991483393   -2.4833728351   -5.7778407967
H       -0.1016715737    0.4118288662   -0.1176708887
H       -0.9921090465   -1.0551506919    0.3173995211
H       -1.8260623976    0.2732173437   -0.4992143418
H        0.4355077536   -1.3866026103   -1.7699901775
H       -0.4355427481   -0.0824259036   -2.5444264240
H       -2.5282896012   -1.7721432743   -1.7249841122
H       -1.2824160355   -2.9225030284   -2.1561503380
H       -1.0746006121   -1.7828293074   -4.4163500322
H       -2.3512934492   -0.6739248872   -3.9445512373
H       -2.6570346216   -3.7167529007   -4.1628018743
H       -3.9339735524   -2.6113240737   -3.6854523762
H       -4.1507611884   -3.2072373591   -6.1113629862
H       -3.8067785521   -1.4791735929   -5.9431438519
H       -2.5203841368   -2.5931758282   -6.4240492022
20   
torsion grid (150,)
C       -0.7885888670   -0.4329113113   -0.4083979966
C       -0.6164860861   -0.8582677195   -1.8714577230
C       -1.7055034163   -1.8352716296   -2.3534121942
C       -2.0169107188   -1.7170582596   -3.8500415581
C       -3.0752272608   -2.7139276327   -4.3362126575
C       -3.3954521193   -2.5703603440   -5.8284756265
H        0.0112252861    0.2446001886   -0.0893571972
H       -0.7784386740   -1.2995243650    0.2635772908
H       -1.7441294511    0.0843164828   -0.2647125365
H        0.3758130165   -1.3006900666   -2.0224244089
H       -0.6425980885    0.0420328751   -2.4996073454
H       -2.6316759193   -1.6425161406   -1.7940716334
H       -1.4185848841   -2.8665493051   -2.1098717257
H       -1.0939655947   -1.8573635396   -4.4307921917
H       -2.3562601505   -0.6939767019   -4.0632130720
H       -2.7300335751   -3.7361101659   -4.1319986239
H       -3.9938524898   -2.5798788687   -3.7494695119
H       -4.1526624381   -3.2945784990   -6.1482867581
H       -3.7758353830   -1.5676260840   -6.0559516693
H       -2.5006722682   -2.7305791775   -6.4413253651
20   
torsion grid (165,)
C       -0.6929214085   -0.7109213293   -0.3385924389
C       -0.6858220658   -0.8832496444   -1.8619007975
C       -1.7760640229   -1.8395850986   -2.3657834417
C       -2.0221949546   -1.7457552224   -3.8758795548
C       -3.0897213492   -2.7221259523   -4.3837655516
C       -3.3384523252   -2.6092023877   -5.8921830819
H        0.1057661448   -0.0386582730   -0.0063029418
H       -0.5530039749   -1.6715423284    0.1714249571
H       -1.6466667970   -0.2923383790    0.0027405849
H        0.2976192249   -1.2385400357   -2.1954862607
H       -0.8284641616    0.0995257151   -2.3310093618
H       -2.7165430665   -1.6174314863   -1.8418911220
H       -1.5153695556   -2.8713758070   -2.0935113163
H       -1.0807457166   -1.9279398287   -4.4134863537
H       -2.3210741330   -0.7188113554   -4.1276740843
H       -2.7870909328   -3.7486397439   -4.1380006864
H       -4.0286903787   -2.5437079624   -3.8429304454
H       -4.1041972649   -3.3174135252   -6.2271650840
H       -3.6750158478   -1.6014358811   -6.1624643771
H       -2.4231166486   -2.8144148154   -6.4595858321
20   
torsion grid (180,)
C       -0.6058751782   -0.8056864686   -0.3349941043
C       -0.7703672282   -0.7870937241   -1.8589703810
C       -1.8588889799   -1.7450698130   -2.3576003463
C       -2.0320113057   -1.7343698758   -3.8804962953
C       -3.1204865706   -2.6923965829   -4.3791313992
C       -3.2850629503   -2.6737169190   -5.9030971785
H        0.1770392631   -0.1131630152   -0.0069647347
H       -0.3360582013   -1.8069746642    0.0207160870
H       -1.5374489235   -0.5176477006    0.1661173464
H        0.1849507121   -1.0469759307   -2.3340051506
H       -1.0074958868    0.2328290667   -2.1896624335
H       -2.8147785963   -1.4856173031   -1.8813059296
H       -1.6219855426   -2.7657215977   -2.0258730804
H       -1.0761110750   -1.9937543805   -4.3568062576
H       -2.2689808323   -0.7137262943   -4.2122016030
H       -2.8832759706   -3.7123212996   -4.0485048147
H       -4.0758008026   -2.4326042322   -3.9040394606
H       -4.0679262224   -3.3662960781   -6.2311310147
H       -3.5549984030   -1.6724314386   -6.2587247535
H       -2.3534877750   -2.9616291195   -6.4042789141
