
  -OEChem-12122420533D

 15 14  0     0  0  0  0  0  0999 V2000
    1.0471    0.6545   -1.7780 N   0  0  0  0  0  0  0  0  0  0  0  0
    0.3718   -0.3903   -1.0169 C   0  0  0  0  0  0  0  0  0  0  0  0
    1.2162   -1.6195   -0.6068 C   0  0  0  0  0  0  0  0  0  0  0  0
    1.6042   -2.6646   -2.0456 S   0  0  0  0  0  0  0  0  0  0  0  0
    0.3569   -3.2951   -2.4777 O   0  0  0  0  0  0  0  0  0  0  0  0
    2.4337   -1.8695   -2.9565 O   0  0  0  0  0  0  0  0  0  0  0  0
    2.5903   -3.9133   -1.5002 N   0  0  0  0  0  0  0  0  0  0  0  0
    3.4991   -3.6008   -1.1667 H   0  0  0  0  0  0  0  0  0  0  0  0
    2.1186   -4.5572   -0.8697 H   0  0  0  0  0  0  0  0  0  0  0  0
    0.6685   -2.2621    0.0898 H   0  0  0  0  0  0  0  0  0  0  0  0
    2.1695   -1.3193   -0.1610 H   0  0  0  0  0  0  0  0  0  0  0  0
   -0.4983   -0.7352   -1.5840 H   0  0  0  0  0  0  0  0  0  0  0  0
   -0.0169    0.0497   -0.0919 H   0  0  0  0  0  0  0  0  0  0  0  0
    1.8250    1.0375   -1.2438 H   0  0  0  0  0  0  0  0  0  0  0  0
    1.4434    0.2679   -2.6333 H   0  0  0  0  0  0  0  0  0  0  0  0
  1  2  1  0  0  0  0
  1 14  1  0  0  0  0
  1 15  1  0  0  0  0
  2  3  1  0  0  0  0
  2 12  1  0  0  0  0
  2 13  1  0  0  0  0
  3  4  1  0  0  0  0
  3 10  1  0  0  0  0
  3 11  1  0  0  0  0
  4  5  2  0  0  0  0
  4  6  2  0  0  0  0
  4  7  1  0  0  0  0
  7  8  1  0  0  0  0
  7  9  1  0  0  0  0
M  END
$$$$
