
  -OEChem-12122420533D

 20 20  0     0  0  0  0  0  0999 V2000
    0.4576   -1.4749   -0.1203 C   0  0  0  0  0  0  0  0  0  0  0  0
    0.9958   -2.4036   -0.2775 H   0  0  0  0  0  0  0  0  0  0  0  0
   -0.8752   -1.4069   -0.3806 C   0  0  0  0  0  0  0  0  0  0  0  0
   -1.4397   -2.2594   -0.7451 H   0  0  0  0  0  0  0  0  0  0  0  0
   -1.6038   -0.2516   -0.1949 N   0  0  0  0  0  0  0  0  0  0  0  0
   -3.0496   -0.2562   -0.4425 C   0  0  0  0  0  0  0  0  0  0  0  0
   -3.5614   -0.8916    0.2863 H   0  0  0  0  0  0  0  0  0  0  0  0
   -3.4323    0.7604   -0.3552 H   0  0  0  0  0  0  0  0  0  0  0  0
   -3.2557   -0.6217   -1.4517 H   0  0  0  0  0  0  0  0  0  0  0  0
   -0.9642    0.8700    0.2468 C   0  0  0  0  0  0  0  0  0  0  0  0
   -1.5664    1.7625    0.3844 H   0  0  0  0  0  0  0  0  0  0  0  0
    0.3744    0.8751    0.5089 C   0  0  0  0  0  0  0  0  0  0  0  0
    1.1304    2.4399    0.9672 S   0  0  0  0  0  0  0  0  0  0  0  0
    1.9749    2.8609   -0.1443 O   0  0  0  0  0  0  0  0  0  0  0  0
    0.0539    3.2934    1.4829 O   0  0  0  0  0  0  0  0  0  0  0  0
    2.1403    2.0846    2.2525 N   0  0  0  0  0  0  0  0  0  0  0  0
    2.7514    1.3050    1.9858 H   0  0  0  0  0  0  0  0  0  0  0  0
    1.5959    1.8688    3.0866 H   0  0  0  0  0  0  0  0  0  0  0  0
    1.2043   -0.3239    0.3772 C   0  0  0  0  0  0  0  0  0  0  0  0
    2.4100   -0.3673    0.6801 O   0  0  0  0  0  0  0  0  0  0  0  0
  1  2  1  0  0  0  0
  1  3  2  0  0  0  0
  1 19  1  0  0  0  0
  3  4  1  0  0  0  0
  3  5  1  0  0  0  0
  5  6  1  0  0  0  0
  5 10  1  0  0  0  0
  6  7  1  0  0  0  0
  6  8  1  0  0  0  0
  6  9  1  0  0  0  0
 10 11  1  0  0  0  0
 10 12  2  0  0  0  0
 12 13  1  0  0  0  0
 12 19  1  0  0  0  0
 13 14  2  0  0  0  0
 13 15  2  0  0  0  0
 13 16  1  0  0  0  0
 16 17  1  0  0  0  0
 16 18  1  0  0  0  0
 19 20  2  0  0  0  0
M  END
$$$$
