15
0 1 C2H8N2O2S
N                    -0.017741105205     0.390650465194     0.242164461736
C                     0.380426481020    -0.406233781530    -0.918700814161
C                     1.225793763866    -1.646546601691    -0.566481727473
S                     1.679821412868    -2.584023327093    -2.061085872460
O                     0.445979149384    -3.141330455259    -2.616753562002
O                     2.589401603798    -1.744545590807    -2.841914956697
N                     2.593688616552    -3.904447369701    -1.554062824468
H                     3.491317752937    -3.647864966851    -1.150271777861
H                     2.067745213108    -4.575315080594    -0.999138343151
H                     0.670226041191    -2.334782533067     0.078182429723
H                     2.163222196555    -1.361723783851    -0.078611338436
H                     0.946068086754     0.232887059173    -1.601699558060
H                    -0.521511158005    -0.723793359034    -1.448396110488
H                    -0.571216979782    -0.164076638314     0.892379523827
H                     0.798053670150     0.728941771743     0.748991793537
