27
0 1 C7H15NO3S
C                     0.716443272790    -0.811831126920     0.384871167415
H                    -0.005072332901    -0.097027462091    -0.030791551864
H                     0.221486079047    -1.787384068250     0.406798069648
C                     1.108320148504    -0.377461765697     1.800548039296
H                     0.216967911104    -0.214928208129     2.414892929998
H                     1.676277386086    -1.171104817881     2.297967007758
C                     1.888564962891     0.933289256173     1.816681689347
H                     1.279451555137     1.771096623427     1.473075332186
H                     2.251298382706     1.183135095546     2.811970876845
N                     3.113862898294     0.907820041692     0.901258022025
C                     4.167401769974    -0.019673940842     1.453169680519
H                     4.978845009999    -0.081728573215     0.726492681402
H                     4.525665087013     0.413084747829     2.387612569471
H                     3.741516193669    -1.006788795672     1.612900964293
C                     3.717764042818     2.302306567808     0.777616888608
S                     3.891070965756     3.282230777488     2.364140935458
O                     4.859057006356     4.307105902993     1.938467538047
O                     4.390690930407     2.274335297639     3.340049155785
O                     2.509242877113     3.747272451072     2.624480946306
H                     4.708433576767     2.188845740278     0.336835053199
H                     3.073871780543     2.891025660492     0.124930674778
C                     2.694919581940     0.471569466070    -0.491918303651
H                     2.044012017384     1.263552849184    -0.870568527279
H                     3.600967668451     0.455087077653    -1.102078027045
C                     1.953956226914    -0.861722377683    -0.517769906876
H                     2.617734243792    -1.680991148509    -0.222329672189
H                     1.671343771699    -1.053914735670    -1.558191920158
