
  -OEChem-12102412493D

 11 10  0     0  0  0  0  0  0999 V2000
    0.4703   -2.7013   -1.6019 C   0  0  0  0  0  0  0  0  0  0  0  0
    0.9008   -2.0558   -0.5192 C   0  0  0  0  0  0  0  0  0  0  0  0
    0.4151   -2.5803    1.1242 S   0  0  0  0  0  0  0  0  0  0  0  0
   -0.4459   -3.7528    0.9888 O   0  0  0  0  0  0  0  0  0  0  0  0
    1.6174   -2.5583    1.9547 O   0  0  0  0  0  0  0  0  0  0  0  0
   -0.5668   -1.3500    1.7225 N   0  0  0  0  0  0  0  0  0  0  0  0
   -1.4195   -1.2222    1.1816 H   0  0  0  0  0  0  0  0  0  0  0  0
   -0.0603   -0.4827    1.8870 H   0  0  0  0  0  0  0  0  0  0  0  0
    1.5917   -1.2166   -0.5289 H   0  0  0  0  0  0  0  0  0  0  0  0
    0.7882   -2.3933   -2.5948 H   0  0  0  0  0  0  0  0  0  0  0  0
   -0.1971   -3.5546   -1.5145 H   0  0  0  0  0  0  0  0  0  0  0  0
  1  2  2  0  0  0  0
  1 10  1  0  0  0  0
  1 11  1  0  0  0  0
  2  3  1  0  0  0  0
  2  9  1  0  0  0  0
  3  4  2  0  0  0  0
  3  5  2  0  0  0  0
  3  6  1  0  0  0  0
  6  7  1  0  0  0  0
  6  8  1  0  0  0  0
M  END
$$$$
