15
0 1 C2H8N2O2S
N                    -0.954854174735    -0.581931511231    -1.488848109838
C                     0.351961874813    -0.387339752644    -0.866624770615
C                     1.218030967023    -1.634867359021    -0.621755631237
S                     1.611739658445    -2.562705841211    -2.131121317394
O                     1.672577151482    -1.623380080675    -3.258832206973
O                     2.716850542962    -3.475967682041    -1.819219776711
N                     0.205649080449    -3.505321311254    -2.369286935119
H                    -0.103235843211    -3.375209637034    -3.332943888085
H                     0.438634111490    -4.486369773792    -2.210947752542
H                     0.745825694535    -2.354856923472     0.052027200490
H                     2.196686881806    -1.364407363197    -0.212943132118
H                     0.212327164553     0.087864811606     0.112030196941
H                     0.916826775404     0.316938905554    -1.482177820514
H                    -0.836982316481    -0.801972280313    -2.475185460468
H                    -1.444332426393    -1.369368769971    -1.067695124081
