
  -OEChem-12102412493D

 15 14  0     0  0  0  0  0  0999 V2000
   -1.0390   -0.9015   -1.4427 N   0  0  0  0  0  0  0  0  0  0  0  0
    0.2784   -0.4433   -1.0168 C   0  0  0  0  0  0  0  0  0  0  0  0
    1.3117   -1.5291   -0.6359 C   0  0  0  0  0  0  0  0  0  0  0  0
    1.8978   -2.4290   -2.1055 S   0  0  0  0  0  0  0  0  0  0  0  0
    0.7453   -3.1277   -2.6830 O   0  0  0  0  0  0  0  0  0  0  0  0
    2.7192   -1.5039   -2.8862 O   0  0  0  0  0  0  0  0  0  0  0  0
    2.9405   -3.6335   -1.5664 N   0  0  0  0  0  0  0  0  0  0  0  0
    3.8001   -3.2740   -1.1582 H   0  0  0  0  0  0  0  0  0  0  0  0
    2.4841   -4.3479   -1.0041 H   0  0  0  0  0  0  0  0  0  0  0  0
    0.8810   -2.2703    0.0445 H   0  0  0  0  0  0  0  0  0  0  0  0
    2.2038   -1.0859   -0.1822 H   0  0  0  0  0  0  0  0  0  0  0  0
    0.1556    0.1992   -0.1379 H   0  0  0  0  0  0  0  0  0  0  0  0
    0.7051    0.1873   -1.8029 H   0  0  0  0  0  0  0  0  0  0  0  0
   -0.9537   -1.5229   -2.2456 H   0  0  0  0  0  0  0  0  0  0  0  0
   -1.4841   -1.4416   -0.7029 H   0  0  0  0  0  0  0  0  0  0  0  0
  1  2  1  0  0  0  0
  1 14  1  0  0  0  0
  1 15  1  0  0  0  0
  2  3  1  0  0  0  0
  2 12  1  0  0  0  0
  2 13  1  0  0  0  0
  3  4  1  0  0  0  0
  3 10  1  0  0  0  0
  3 11  1  0  0  0  0
  4  5  2  0  0  0  0
  4  6  2  0  0  0  0
  4  7  1  0  0  0  0
  7  8  1  0  0  0  0
  7  9  1  0  0  0  0
M  END
$$$$
