
  -OEChem-12122420533D

 14 13  0     0  0  0  0  0  0999 V2000
   -1.3025   -2.6244    3.4014 O   0  0  0  0  0  0  0  0  0  0  0  0
   -0.0102   -2.4400    2.8300 N   0  0  0  0  0  0  0  0  0  0  0  0
    0.1967   -0.8063    2.2176 S   0  0  0  0  0  0  0  0  0  0  0  0
    1.6379   -0.5835    2.3838 O   0  0  0  0  0  0  0  0  0  0  0  0
   -0.7994    0.1045    2.7798 O   0  0  0  0  0  0  0  0  0  0  0  0
   -0.1556   -1.0379    0.4560 C   0  0  0  0  0  0  0  0  0  0  0  0
   -1.5890   -1.4827    0.1820 C   0  0  0  0  0  0  0  0  0  0  0  0
   -1.7699   -1.4684   -0.8969 H   0  0  0  0  0  0  0  0  0  0  0  0
   -1.7642   -2.5029    0.5331 H   0  0  0  0  0  0  0  0  0  0  0  0
   -2.3071   -0.8146    0.6626 H   0  0  0  0  0  0  0  0  0  0  0  0
    0.0546   -0.0539    0.0268 H   0  0  0  0  0  0  0  0  0  0  0  0
    0.5926   -1.7472    0.0970 H   0  0  0  0  0  0  0  0  0  0  0  0
    0.6510   -2.4982    3.6116 H   0  0  0  0  0  0  0  0  0  0  0  0
   -1.6951   -3.3161    2.8426 H   0  0  0  0  0  0  0  0  0  0  0  0
  1  2  1  0  0  0  0
  1 14  1  0  0  0  0
  2  3  1  0  0  0  0
  2 13  1  0  0  0  0
  3  4  2  0  0  0  0
  3  5  2  0  0  0  0
  3  6  1  0  0  0  0
  6  7  1  0  0  0  0
  6 11  1  0  0  0  0
  6 12  1  0  0  0  0
  7  8  1  0  0  0  0
  7  9  1  0  0  0  0
  7 10  1  0  0  0  0
M  END
$$$$
