
  -OEChem-12122420533D

 14 13  0     0  0  0  0  0  0999 V2000
   -1.4295   -2.6017    3.0192 O   0  0  0  0  0  0  0  0  0  0  0  0
   -0.0472   -2.4467    2.7463 N   0  0  0  0  0  0  0  0  0  0  0  0
    0.2928   -0.8370    2.1911 S   0  0  0  0  0  0  0  0  0  0  0  0
    1.7355   -0.6618    2.3776 O   0  0  0  0  0  0  0  0  0  0  0  0
   -0.6745    0.0760    2.8254 O   0  0  0  0  0  0  0  0  0  0  0  0
   -0.1112   -0.9901    0.4375 C   0  0  0  0  0  0  0  0  0  0  0  0
   -0.0146    0.3686   -0.2530 C   0  0  0  0  0  0  0  0  0  0  0  0
   -0.2677    0.2479   -1.3101 H   0  0  0  0  0  0  0  0  0  0  0  0
   -0.7104    1.0858    0.1886 H   0  0  0  0  0  0  0  0  0  0  0  0
    0.9983    0.7742   -0.1893 H   0  0  0  0  0  0  0  0  0  0  0  0
    0.5964   -1.7206    0.0403 H   0  0  0  0  0  0  0  0  0  0  0  0
   -1.1202   -1.4087    0.4065 H   0  0  0  0  0  0  0  0  0  0  0  0
    0.4866   -2.5642    3.6170 H   0  0  0  0  0  0  0  0  0  0  0  0
   -1.7098   -1.8201    3.5437 H   0  0  0  0  0  0  0  0  0  0  0  0
  1  2  1  0  0  0  0
  1 14  1  0  0  0  0
  2  3  1  0  0  0  0
  2 13  1  0  0  0  0
  3  4  2  0  0  0  0
  3  5  2  0  0  0  0
  3  6  1  0  0  0  0
  6  7  1  0  0  0  0
  6 11  1  0  0  0  0
  6 12  1  0  0  0  0
  7  8  1  0  0  0  0
  7  9  1  0  0  0  0
  7 10  1  0  0  0  0
M  END
$$$$
