11
0 1 C2H5NO2S
C                     0.470297064758    -2.701308068524    -1.601869196398
C                     0.900804522448    -2.055766207423    -0.519175512675
S                     0.415082756931    -2.580297353310     1.124214382910
O                    -0.445868567222    -3.752846830269     0.988848571667
O                     1.617378920059    -2.558260636222     1.954714437313
N                    -0.566765456418    -1.349993681959     1.722541730332
H                    -1.419510893067    -1.222213573113     1.181604921432
H                    -0.060324926699    -0.482724511087     1.887003472070
H                     1.591716042594    -1.216584344699    -0.528883739573
H                     0.788190770046    -2.393349162649    -2.594812493695
H                    -0.197126316338    -3.554644268027    -1.514518602163
