
  -OEChem-12122420533D

 27 27  0     0  0  0  0  0  0999 V2000
    0.7198   -0.8020    0.4101 C   0  0  0  0  0  0  0  0  0  0  0  0
    0.0276   -0.0827   -0.0426 H   0  0  0  0  0  0  0  0  0  0  0  0
    0.1982   -1.7620    0.4698 H   0  0  0  0  0  0  0  0  0  0  0  0
    1.1034   -0.3197    1.8138 C   0  0  0  0  0  0  0  0  0  0  0  0
    0.2064   -0.1128    2.4065 H   0  0  0  0  0  0  0  0  0  0  0  0
    1.6489   -1.1047    2.3508 H   0  0  0  0  0  0  0  0  0  0  0  0
    1.9042    0.9785    1.7670 C   0  0  0  0  0  0  0  0  0  0  0  0
    1.3145    1.8030    1.3621 H   0  0  0  0  0  0  0  0  0  0  0  0
    2.2743    1.2624    2.7555 H   0  0  0  0  0  0  0  0  0  0  0  0
    3.1330    0.8920    0.8628 N   0  3  0  0  0  0  0  0  0  0  0  0
    4.1519   -0.0329    1.4610 C   0  0  0  0  0  0  0  0  0  0  0  0
    4.9905   -0.1235    0.7701 H   0  0  0  0  0  0  0  0  0  0  0  0
    4.4966    0.3931    2.4040 H   0  0  0  0  0  0  0  0  0  0  0  0
    3.7182   -1.0138    1.6400 H   0  0  0  0  0  0  0  0  0  0  0  0
    3.7812    2.2698    0.7783 C   0  0  0  0  0  0  0  0  0  0  0  0
    2.9411    3.5462   -0.3038 S   0  0  0  0  0  0  0  0  0  0  0  0
    1.4950    3.3691    0.0063 O   0  0  0  0  0  0  0  0  0  0  0  0
    3.3211    3.1313   -1.6736 O   0  0  0  0  0  0  0  0  0  0  0  0
    3.5683    4.7760    0.2088 O   0  5  0  0  0  0  0  0  0  0  0  0
    3.8253    2.6658    1.7934 H   0  0  0  0  0  0  0  0  0  0  0  0
    4.7859    2.1413    0.3750 H   0  0  0  0  0  0  0  0  0  0  0  0
    2.7218    0.4005   -0.5247 C   0  0  0  0  0  0  0  0  0  0  0  0
    2.0903    1.1791   -0.9473 H   0  0  0  0  0  0  0  0  0  0  0  0
    3.6336    0.3551   -1.1221 H   0  0  0  0  0  0  0  0  0  0  0  0
    1.9659   -0.9220   -0.4747 C   0  0  0  0  0  0  0  0  0  0  0  0
    2.6060   -1.7452   -0.1366 H   0  0  0  0  0  0  0  0  0  0  0  0
    1.6824   -1.1585   -1.5054 H   0  0  0  0  0  0  0  0  0  0  0  0
  1  2  1  0  0  0  0
  1  3  1  0  0  0  0
  1  4  1  0  0  0  0
  1 25  1  0  0  0  0
  4  5  1  0  0  0  0
  4  6  1  0  0  0  0
  4  7  1  0  0  0  0
  7  8  1  0  0  0  0
  7  9  1  0  0  0  0
  7 10  1  0  0  0  0
 10 11  1  0  0  0  0
 10 15  1  0  0  0  0
 10 22  1  0  0  0  0
 11 12  1  0  0  0  0
 11 13  1  0  0  0  0
 11 14  1  0  0  0  0
 15 16  1  0  0  0  0
 15 20  1  0  0  0  0
 15 21  1  0  0  0  0
 16 17  2  0  0  0  0
 16 18  2  0  0  0  0
 16 19  1  0  0  0  0
 22 23  1  0  0  0  0
 22 24  1  0  0  0  0
 22 25  1  0  0  0  0
 25 26  1  0  0  0  0
 25 27  1  0  0  0  0
M  CHG  2  10   1  19  -1
M  END
$$$$
