27
0 1 C7H15NO3S
C                     0.719831134086    -0.801965972520     0.410093674189
H                     0.027595115132    -0.082740767508    -0.042552176697
H                     0.198169097074    -1.762029081962     0.469810846154
C                     1.103401885548    -0.319716964200     1.813832175903
H                     0.206350790597    -0.112828037422     2.406536798499
H                     1.648925914725    -1.104741973917     2.350838902078
C                     1.904198006009     0.978540596486     1.767011137231
H                     1.314487991956     1.803047083965     1.362108220511
H                     2.274308738235     1.262447196904     2.755532185246
N                     3.133010545941     0.892000431857     0.862770878825
C                     4.151904153889    -0.032937217283     1.461009880112
H                     4.990499825849    -0.123474585474     0.770063831153
H                     4.496561864456     0.393114155534     2.403955826615
H                     3.718163740948    -1.013771331301     1.639961864447
C                     3.781244268012     2.269847509761     0.778297907928
S                     2.941110627157     3.546165632005    -0.303829884270
O                     1.495037371786     3.369123818647     0.006270130809
O                     3.321097610628     3.131282205545    -1.673602310617
O                     3.568274666450     4.775963827993     0.208761240418
H                     3.825341060070     2.665790170403     1.793351260982
H                     4.785891478221     2.141341300989     0.374965261079
C                     2.721773012877     0.400478339059    -0.524731127247
H                     2.090316213966     1.179068913735    -0.947291745552
H                     3.633592919893     0.355133059208    -1.122090768304
C                     1.965850918794    -0.921955455094    -0.474729680621
H                     2.606032463464    -1.745158430935    -0.136621771019
H                     1.682446327628    -1.158481242603    -1.505356946532
