
  -OEChem-12122420533D

 14 13  0     0  0  0  0  0  0999 V2000
    0.6135   -3.5003    2.3830 O   0  0  0  0  0  0  0  0  0  0  0  0
   -0.1196   -2.4276    2.9716 N   0  0  0  0  0  0  0  0  0  0  0  0
    0.2366   -0.9164    2.1924 S   0  0  0  0  0  0  0  0  0  0  0  0
    1.6726   -0.7123    2.3737 O   0  0  0  0  0  0  0  0  0  0  0  0
   -0.7701   -0.0094    2.7489 O   0  0  0  0  0  0  0  0  0  0  0  0
   -0.1075   -1.1013    0.4076 C   0  0  0  0  0  0  0  0  0  0  0  0
    0.9575   -1.8761   -0.3623 C   0  0  0  0  0  0  0  0  0  0  0  0
    0.7352   -1.8158   -1.4326 H   0  0  0  0  0  0  0  0  0  0  0  0
    1.9451   -1.4424   -0.1898 H   0  0  0  0  0  0  0  0  0  0  0  0
    0.9823   -2.9255   -0.0671 H   0  0  0  0  0  0  0  0  0  0  0  0
   -1.1047   -1.5448    0.3383 H   0  0  0  0  0  0  0  0  0  0  0  0
   -0.1808   -0.0616    0.0736 H   0  0  0  0  0  0  0  0  0  0  0  0
   -1.1076   -2.6541    2.8353 H   0  0  0  0  0  0  0  0  0  0  0  0
    1.3592   -3.6155    2.9978 H   0  0  0  0  0  0  0  0  0  0  0  0
  1  2  1  0  0  0  0
  1 14  1  0  0  0  0
  2  3  1  0  0  0  0
  2 13  1  0  0  0  0
  3  4  2  0  0  0  0
  3  5  2  0  0  0  0
  3  6  1  0  0  0  0
  6  7  1  0  0  0  0
  6 11  1  0  0  0  0
  6 12  1  0  0  0  0
  7  8  1  0  0  0  0
  7  9  1  0  0  0  0
  7 10  1  0  0  0  0
M  END
$$$$
