27
0 1 C7H15NO3S
C                     0.714084629418    -0.762394434088     0.435319715867
H                     0.224363665342    -1.738228564313     0.504461645080
H                    -0.016501227125    -0.070632462663    -0.004174737224
C                     1.938963498805    -0.849573490238    -0.483702388238
H                     2.602604940337    -1.661774908911    -0.171997595642
H                     1.635959903582    -1.074077234080    -1.511773013832
C                     2.695234257168     0.475130521775    -0.515110997772
H                     3.594258521644     0.423895557779    -1.133164330615
H                     2.050693811020     1.264866055350    -0.912648243979
N                     3.133880306896     0.942007440136     0.861875346940
C                     3.728529332944     2.322503669116     0.726960653977
H                     3.923175326903     2.721205438568     1.719717432182
H                     4.671304704464     2.250592201010     0.186493346974
H                     3.012301609907     2.944416730574     0.188155116876
C                     4.170184077913    -0.025877919208     1.413727483581
S                     5.152211248411     0.567108712507     2.890304069155
O                     4.115972809613     1.190278871471     3.759229929829
O                     6.114038661132     1.527037987741     2.302552587585
O                     5.708395557788    -0.711976487955     3.364201380483
H                     3.669332855479    -0.942041953073     1.709260086150
H                     4.887838632046    -0.228631299626     0.618254361974
C                     1.909124312459     1.034574234680     1.771458924604
H                     2.288248250234     1.326584289770     2.751144253107
H                     1.300678456464     1.840823727384     1.350864427183
C                     1.112171643121    -0.263725432636     1.829545220031
H                     0.222131040231    -0.059871808129     2.433584553892
H                     1.673435767966    -1.029286801826     2.373291705915
