
  -OEChem-12122420533D

 11 10  0     0  0  0  0  0  0999 V2000
    1.7294   -1.3029   -0.9248 C   0  0  0  0  0  0  0  0  0  0  0  0
    0.5108   -1.6637   -0.5259 C   0  0  0  0  0  0  0  0  0  0  0  0
    0.2566   -2.4740    1.0522 S   0  0  0  0  0  0  0  0  0  0  0  0
   -0.6646   -3.5846    0.8207 O   0  0  0  0  0  0  0  0  0  0  0  0
    1.5592   -2.6316    1.6948 O   0  0  0  0  0  0  0  0  0  0  0  0
   -0.5967   -1.3721    1.9975 N   0  0  0  0  0  0  0  0  0  0  0  0
   -1.5408   -1.2044    1.6565 H   0  0  0  0  0  0  0  0  0  0  0  0
   -0.0761   -0.5165    2.1792 H   0  0  0  0  0  0  0  0  0  0  0  0
   -0.3961   -1.5473   -1.1139 H   0  0  0  0  0  0  0  0  0  0  0  0
    1.8799   -0.8344   -1.8941 H   0  0  0  0  0  0  0  0  0  0  0  0
    2.5979   -1.4794   -0.2957 H   0  0  0  0  0  0  0  0  0  0  0  0
  1  2  2  0  0  0  0
  1 10  1  0  0  0  0
  1 11  1  0  0  0  0
  2  3  1  0  0  0  0
  2  9  1  0  0  0  0
  3  4  2  0  0  0  0
  3  5  2  0  0  0  0
  3  6  1  0  0  0  0
  6  7  1  0  0  0  0
  6  8  1  0  0  0  0
M  END
$$$$
