27
0 1 C7H15NO3S
C                     0.688260278819    -0.792348594766     0.465902343276
H                    -0.034727963548    -0.075110804729     0.057017891931
H                     0.176609528494    -1.757204372245     0.532427491183
C                     1.129685551383    -0.325491293005     1.857221219900
H                     0.262816533734    -0.137363100665     2.499436863559
H                     1.721697375175    -1.099164102151     2.357268473981
C                     1.912653860953     0.980544082572     1.765156646280
H                     1.277684246131     1.763453589971     1.343119839329
H                     2.269266684854     1.320478256814     2.740223882308
N                     3.129296319893     0.898307822034     0.859525974753
C                     4.169135719649    -0.020547781754     1.450847809672
H                     5.065268020085     0.062333905645     0.835280397903
H                     4.374851270047     0.311312365361     2.469630544410
H                     3.793185014185    -1.040240187992     1.465795885808
C                     3.722028819544     2.299704111328     0.767429258908
S                     4.931078305192     2.606603181086    -0.629734004292
O                     5.585564113129     3.835049906104    -0.149085116729
O                     4.050163686098     2.747439208283    -1.811894593546
O                     5.770676963763     1.376592991415    -0.636293573868
H                     2.902552214370     3.002732927040     0.621001940012
H                     4.232994481178     2.498745768706     1.709741468075
C                     2.702331915300     0.404748375807    -0.524038577156
H                     2.128334723121     1.221046642111    -0.965800665722
H                     3.614213863051     0.296738338136    -1.108351920304
C                     1.896696310494    -0.889514050399    -0.470325111151
H                     2.535798677620    -1.730409944567    -0.179892766163
H                     1.574468776146    -1.096500806167    -1.495824549346
