
  -OEChem-12122420533D

 15 14  0     0  0  0  0  0  0999 V2000
   -1.1587   -0.8854   -1.3023 N   0  0  0  0  0  0  0  0  0  0  0  0
    0.1888   -0.4475   -0.9554 C   0  0  0  0  0  0  0  0  0  0  0  0
    1.2474   -1.5415   -0.7147 C   0  0  0  0  0  0  0  0  0  0  0  0
    1.7378   -2.4393   -2.2219 S   0  0  0  0  0  0  0  0  0  0  0  0
    2.7551   -3.4160   -1.8381 O   0  0  0  0  0  0  0  0  0  0  0  0
    0.5128   -2.8164   -2.9351 O   0  0  0  0  0  0  0  0  0  0  0  0
    2.5118   -1.3293   -3.2211 N   0  0  0  0  0  0  0  0  0  0  0  0
    1.9009   -0.6042   -3.5887 H   0  0  0  0  0  0  0  0  0  0  0  0
    3.3908   -0.9811   -2.8463 H   0  0  0  0  0  0  0  0  0  0  0  0
    0.8766   -2.3197   -0.0405 H   0  0  0  0  0  0  0  0  0  0  0  0
    2.1760   -1.1389   -0.2974 H   0  0  0  0  0  0  0  0  0  0  0  0
    0.1313    0.1507   -0.0394 H   0  0  0  0  0  0  0  0  0  0  0  0
    0.5448    0.2402   -1.7327 H   0  0  0  0  0  0  0  0  0  0  0  0
   -1.1233   -1.5271   -2.0934 H   0  0  0  0  0  0  0  0  0  0  0  0
   -1.5723   -1.3983   -0.5258 H   0  0  0  0  0  0  0  0  0  0  0  0
  1  2  1  0  0  0  0
  1 14  1  0  0  0  0
  1 15  1  0  0  0  0
  2  3  1  0  0  0  0
  2 12  1  0  0  0  0
  2 13  1  0  0  0  0
  3  4  1  0  0  0  0
  3 10  1  0  0  0  0
  3 11  1  0  0  0  0
  4  5  2  0  0  0  0
  4  6  2  0  0  0  0
  4  7  1  0  0  0  0
  7  8  1  0  0  0  0
  7  9  1  0  0  0  0
M  END
$$$$
