
  -OEChem-12102412493D

 15 14  0     0  0  0  0  0  0999 V2000
   -0.9549   -0.5819   -1.4888 N   0  0  0  0  0  0  0  0  0  0  0  0
    0.3520   -0.3873   -0.8666 C   0  0  0  0  0  0  0  0  0  0  0  0
    1.2180   -1.6349   -0.6218 C   0  0  0  0  0  0  0  0  0  0  0  0
    1.6117   -2.5627   -2.1311 S   0  0  0  0  0  0  0  0  0  0  0  0
    1.6726   -1.6234   -3.2588 O   0  0  0  0  0  0  0  0  0  0  0  0
    2.7169   -3.4760   -1.8192 O   0  0  0  0  0  0  0  0  0  0  0  0
    0.2056   -3.5053   -2.3693 N   0  0  0  0  0  0  0  0  0  0  0  0
   -0.1032   -3.3752   -3.3329 H   0  0  0  0  0  0  0  0  0  0  0  0
    0.4386   -4.4864   -2.2109 H   0  0  0  0  0  0  0  0  0  0  0  0
    0.7458   -2.3549    0.0520 H   0  0  0  0  0  0  0  0  0  0  0  0
    2.1967   -1.3644   -0.2129 H   0  0  0  0  0  0  0  0  0  0  0  0
    0.2123    0.0879    0.1120 H   0  0  0  0  0  0  0  0  0  0  0  0
    0.9168    0.3169   -1.4822 H   0  0  0  0  0  0  0  0  0  0  0  0
   -0.8370   -0.8020   -2.4752 H   0  0  0  0  0  0  0  0  0  0  0  0
   -1.4443   -1.3694   -1.0677 H   0  0  0  0  0  0  0  0  0  0  0  0
  1  2  1  0  0  0  0
  1 14  1  0  0  0  0
  1 15  1  0  0  0  0
  2  3  1  0  0  0  0
  2 12  1  0  0  0  0
  2 13  1  0  0  0  0
  3  4  1  0  0  0  0
  3 10  1  0  0  0  0
  3 11  1  0  0  0  0
  4  5  2  0  0  0  0
  4  6  2  0  0  0  0
  4  7  1  0  0  0  0
  7  8  1  0  0  0  0
  7  9  1  0  0  0  0
M  END
$$$$
