
  -OEChem-12102412493D

 15 14  0     0  0  0  0  0  0999 V2000
   -0.0685    0.3222    0.3265 N   0  0  0  0  0  0  0  0  0  0  0  0
    0.3994   -0.3635   -0.8794 C   0  0  0  0  0  0  0  0  0  0  0  0
    1.2814   -1.5926   -0.6085 C   0  0  0  0  0  0  0  0  0  0  0  0
    1.7397   -2.5121   -2.1142 S   0  0  0  0  0  0  0  0  0  0  0  0
    2.6625   -3.5734   -1.7130 O   0  0  0  0  0  0  0  0  0  0  0  0
    0.5052   -2.7725   -2.8560 O   0  0  0  0  0  0  0  0  0  0  0  0
    2.6361   -1.4619   -3.0773 N   0  0  0  0  0  0  0  0  0  0  0  0
    2.0982   -0.6833   -3.4497 H   0  0  0  0  0  0  0  0  0  0  0  0
    3.5305   -1.1945   -2.6737 H   0  0  0  0  0  0  0  0  0  0  0  0
    0.7531   -2.3324    0.0012 H   0  0  0  0  0  0  0  0  0  0  0  0
    2.2180   -1.3355   -0.1039 H   0  0  0  0  0  0  0  0  0  0  0  0
    0.9516    0.3644   -1.4845 H   0  0  0  0  0  0  0  0  0  0  0  0
   -0.4718   -0.6690   -1.4645 H   0  0  0  0  0  0  0  0  0  0  0  0
   -0.6579   -0.2949    0.8822 H   0  0  0  0  0  0  0  0  0  0  0  0
    0.7152    0.5980    0.9156 H   0  0  0  0  0  0  0  0  0  0  0  0
  1  2  1  0  0  0  0
  1 14  1  0  0  0  0
  1 15  1  0  0  0  0
  2  3  1  0  0  0  0
  2 12  1  0  0  0  0
  2 13  1  0  0  0  0
  3  4  1  0  0  0  0
  3 10  1  0  0  0  0
  3 11  1  0  0  0  0
  4  5  2  0  0  0  0
  4  6  2  0  0  0  0
  4  7  1  0  0  0  0
  7  8  1  0  0  0  0
  7  9  1  0  0  0  0
M  END
$$$$
