15
0 1 C2H8N2O2S
N                    -1.158674011277    -0.885398903820    -1.302292018323
C                     0.188806597524    -0.447486436584    -0.955385103523
C                     1.247401418779    -1.541462337191    -0.714694654323
S                     1.737814366727    -2.439303694806    -2.221898461071
O                     2.755064493136    -3.416027700012    -1.838115668300
O                     0.512772420800    -2.816382817754    -2.935135041675
N                     2.511784816887    -1.329326999377    -3.221074889106
H                     1.900946857646    -0.604188043240    -3.588668320049
H                     3.390814146916    -0.981073826003    -2.846332342840
H                     0.876596173215    -2.319745851499    -0.040511436535
H                     2.176027724125    -1.138853398388    -0.297449155424
H                     0.131323024356     0.150691423569    -0.039396401943
H                     0.544790182096     0.240181576518    -1.732744108201
H                    -1.123311304957    -1.527100467694    -2.093446445337
H                    -1.572305833090    -1.398270381302    -0.525849215192
