
  -OEChem-12122420533D

 27 27  0     0  0  0  0  0  0999 V2000
    0.6788   -0.7497    0.3507 C   0  0  0  0  0  0  0  0  0  0  0  0
    0.1730   -1.7196    0.3687 H   0  0  0  0  0  0  0  0  0  0  0  0
   -0.0309   -0.0287   -0.0769 H   0  0  0  0  0  0  0  0  0  0  0  0
    1.9230   -0.8274   -0.5415 C   0  0  0  0  0  0  0  0  0  0  0  0
    2.5463   -1.6787   -0.2519 H   0  0  0  0  0  0  0  0  0  0  0  0
    1.6450   -0.9934   -1.5879 H   0  0  0  0  0  0  0  0  0  0  0  0
    2.7310    0.4678   -0.4975 C   0  0  0  0  0  0  0  0  0  0  0  0
    3.6633    0.3839   -1.0612 H   0  0  0  0  0  0  0  0  0  0  0  0
    2.1478    1.2913   -0.9208 H   0  0  0  0  0  0  0  0  0  0  0  0
    3.1093    0.9073    0.9079 N   0  3  0  0  0  0  0  0  0  0  0  0
    3.7179    2.2845    0.8251 C   0  0  0  0  0  0  0  0  0  0  0  0
    4.0559    2.5645    1.8227 H   0  0  0  0  0  0  0  0  0  0  0  0
    4.5637    2.2453    0.1368 H   0  0  0  0  0  0  0  0  0  0  0  0
    2.9622    2.9742    0.4471 H   0  0  0  0  0  0  0  0  0  0  0  0
    4.1487   -0.0503    1.4745 C   0  0  0  0  0  0  0  0  0  0  0  0
    4.4816    0.0630    3.3119 S   0  0  0  0  0  0  0  0  0  0  0  0
    4.5477    1.5264    3.5692 O   0  0  0  0  0  0  0  0  0  0  0  0
    5.7553   -0.6717    3.3892 O   0  0  0  0  0  0  0  0  0  0  0  0
    3.3023   -0.6029    3.9146 O   0  5  0  0  0  0  0  0  0  0  0  0
    3.8303   -1.0716    1.2860 H   0  0  0  0  0  0  0  0  0  0  0  0
    5.0847    0.1522    0.9537 H   0  0  0  0  0  0  0  0  0  0  0  0
    1.8442    0.9865    1.7628 C   0  0  0  0  0  0  0  0  0  0  0  0
    2.1553    1.2831    2.7630 H   0  0  0  0  0  0  0  0  0  0  0  0
    1.2512    1.7903    1.3156 H   0  0  0  0  0  0  0  0  0  0  0  0
    1.0625   -0.3197    1.7698 C   0  0  0  0  0  0  0  0  0  0  0  0
    0.1681   -0.1489    2.3775 H   0  0  0  0  0  0  0  0  0  0  0  0
    1.6419   -1.0849    2.2916 H   0  0  0  0  0  0  0  0  0  0  0  0
  1  2  1  0  0  0  0
  1  3  1  0  0  0  0
  1  4  1  0  0  0  0
  1 25  1  0  0  0  0
  4  5  1  0  0  0  0
  4  6  1  0  0  0  0
  4  7  1  0  0  0  0
  7  8  1  0  0  0  0
  7  9  1  0  0  0  0
  7 10  1  0  0  0  0
 10 11  1  0  0  0  0
 10 15  1  0  0  0  0
 10 22  1  0  0  0  0
 11 12  1  0  0  0  0
 11 13  1  0  0  0  0
 11 14  1  0  0  0  0
 15 16  1  0  0  0  0
 15 20  1  0  0  0  0
 15 21  1  0  0  0  0
 16 17  2  0  0  0  0
 16 18  2  0  0  0  0
 16 19  1  0  0  0  0
 22 23  1  0  0  0  0
 22 24  1  0  0  0  0
 22 25  1  0  0  0  0
 25 26  1  0  0  0  0
 25 27  1  0  0  0  0
M  CHG  2  10   1  19  -1
M  END
$$$$
