
  -OEChem-12122420533D

 27 27  0     0  0  0  0  0  0999 V2000
    0.7397   -0.7754    0.3945 C   0  0  0  0  0  0  0  0  0  0  0  0
    0.2693   -1.7627    0.4229 H   0  0  0  0  0  0  0  0  0  0  0  0
   -0.0105   -0.0772    0.0005 H   0  0  0  0  0  0  0  0  0  0  0  0
    1.9589   -0.7901   -0.5352 C   0  0  0  0  0  0  0  0  0  0  0  0
    2.6293   -1.6185   -0.2879 H   0  0  0  0  0  0  0  0  0  0  0  0
    1.6496   -0.9550   -1.5723 H   0  0  0  0  0  0  0  0  0  0  0  0
    2.7193    0.5309   -0.5094 C   0  0  0  0  0  0  0  0  0  0  0  0
    3.6467    0.4809   -1.0807 H   0  0  0  0  0  0  0  0  0  0  0  0
    2.0914    1.3435   -0.8868 H   0  0  0  0  0  0  0  0  0  0  0  0
    3.1221    0.9594    0.9013 N   0  3  0  0  0  0  0  0  0  0  0  0
    3.6877    2.3566    0.8282 C   0  0  0  0  0  0  0  0  0  0  0  0
    4.0939    2.6256    1.8022 H   0  0  0  0  0  0  0  0  0  0  0  0
    4.4917    2.3738    0.0963 H   0  0  0  0  0  0  0  0  0  0  0  0
    2.8797    3.0302    0.5390 H   0  0  0  0  0  0  0  0  0  0  0  0
    4.1450    0.0085    1.5055 C   0  0  0  0  0  0  0  0  0  0  0  0
    5.8855    0.1300    0.8332 S   0  0  0  0  0  0  0  0  0  0  0  0
    5.6754    0.2286   -0.6376 O   0  0  0  0  0  0  0  0  0  0  0  0
    6.4432   -1.1429    1.3220 O   0  0  0  0  0  0  0  0  0  0  0  0
    6.4122    1.3641    1.4589 O   0  5  0  0  0  0  0  0  0  0  0  0
    4.2033    0.2227    2.5730 H   0  0  0  0  0  0  0  0  0  0  0  0
    3.8104   -1.0113    1.3455 H   0  0  0  0  0  0  0  0  0  0  0  0
    1.8856    0.9910    1.7824 C   0  0  0  0  0  0  0  0  0  0  0  0
    2.2133    1.3022    2.7767 H   0  0  0  0  0  0  0  0  0  0  0  0
    1.2410    1.7747    1.3732 H   0  0  0  0  0  0  0  0  0  0  0  0
    1.1377   -0.3385    1.8099 C   0  0  0  0  0  0  0  0  0  0  0  0
    0.2499   -0.1981    2.4354 H   0  0  0  0  0  0  0  0  0  0  0  0
    1.7427   -1.1078    2.2991 H   0  0  0  0  0  0  0  0  0  0  0  0
  1  2  1  0  0  0  0
  1  3  1  0  0  0  0
  1  4  1  0  0  0  0
  1 25  1  0  0  0  0
  4  5  1  0  0  0  0
  4  6  1  0  0  0  0
  4  7  1  0  0  0  0
  7  8  1  0  0  0  0
  7  9  1  0  0  0  0
  7 10  1  0  0  0  0
 10 11  1  0  0  0  0
 10 15  1  0  0  0  0
 10 22  1  0  0  0  0
 11 12  1  0  0  0  0
 11 13  1  0  0  0  0
 11 14  1  0  0  0  0
 15 16  1  0  0  0  0
 15 20  1  0  0  0  0
 15 21  1  0  0  0  0
 16 17  2  0  0  0  0
 16 18  2  0  0  0  0
 16 19  1  0  0  0  0
 22 23  1  0  0  0  0
 22 24  1  0  0  0  0
 22 25  1  0  0  0  0
 25 26  1  0  0  0  0
 25 27  1  0  0  0  0
M  CHG  2  10   1  19  -1
M  END
$$$$
