
  -OEChem-12102412493D

 15 14  0     0  0  0  0  0  0999 V2000
   -0.0046    0.3672    0.2999 N   0  0  0  0  0  0  0  0  0  0  0  0
    0.2601   -0.4885   -0.8581 C   0  0  0  0  0  0  0  0  0  0  0  0
    1.2653   -1.6205   -0.5939 C   0  0  0  0  0  0  0  0  0  0  0  0
    1.6821   -2.5923   -2.0789 S   0  0  0  0  0  0  0  0  0  0  0  0
    2.0637   -1.6428   -3.1252 O   0  0  0  0  0  0  0  0  0  0  0  0
    2.5468   -3.6917   -1.6519 O   0  0  0  0  0  0  0  0  0  0  0  0
    0.2559   -3.3090   -2.6132 N   0  0  0  0  0  0  0  0  0  0  0  0
   -0.1246   -3.9998   -1.9710 H   0  0  0  0  0  0  0  0  0  0  0  0
   -0.4305   -2.6481   -2.9686 H   0  0  0  0  0  0  0  0  0  0  0  0
    0.9081   -2.3345    0.1549 H   0  0  0  0  0  0  0  0  0  0  0  0
    2.2294   -1.2241   -0.2600 H   0  0  0  0  0  0  0  0  0  0  0  0
    0.6310    0.1373   -1.6739 H   0  0  0  0  0  0  0  0  0  0  0  0
   -0.6964   -0.9097   -1.1879 H   0  0  0  0  0  0  0  0  0  0  0  0
   -0.3253   -0.1841    1.0939 H   0  0  0  0  0  0  0  0  0  0  0  0
    0.8454    0.8460    0.5918 H   0  0  0  0  0  0  0  0  0  0  0  0
  1  2  1  0  0  0  0
  1 14  1  0  0  0  0
  1 15  1  0  0  0  0
  2  3  1  0  0  0  0
  2 12  1  0  0  0  0
  2 13  1  0  0  0  0
  3  4  1  0  0  0  0
  3 10  1  0  0  0  0
  3 11  1  0  0  0  0
  4  5  2  0  0  0  0
  4  6  2  0  0  0  0
  4  7  1  0  0  0  0
  7  8  1  0  0  0  0
  7  9  1  0  0  0  0
M  END
$$$$
