11
0 1 C2H5NO2S
C                     1.729393850238    -1.302943017419    -0.924767105909
C                     0.510768267950    -1.663709474958    -0.525879918054
S                     0.256627044240    -2.473996393984     1.052224072691
O                    -0.664607174066    -3.584629830081     0.820664724432
O                     1.559221042830    -2.631578662646     1.694821766421
N                    -0.596728814196    -1.372141076460     1.997477850969
H                    -1.540808136573    -1.204395985926     1.656510394723
H                    -0.076142986045    -0.516521847717     2.179188340851
H                    -0.396107875060    -1.547344454103    -1.113855220417
H                     1.879878365517    -0.834367572506    -1.894106363764
H                     2.597933723761    -1.479447557155    -0.295671051203
