14   
torsion grid (-165,)
C        0.0746523045   -1.3177759081    3.1856905567
C        1.2839621352    0.7379041237    2.3192215755
C        1.3987267973    1.6337907487    1.0901246711
N        0.5492795101   -0.5363163830    1.9864190165
Cl      -0.2432288753    2.0796973058    0.5091667768
Cl       2.3543968420    0.8029377063   -0.1821746948
H       -0.6323327462   -0.7008486165    3.7392530102
H       -0.4102449873   -2.2283059461    2.8338923457
H        0.9359390003   -1.5629654380    3.8067863730
H        2.2716132005    0.4679509843    2.6969297527
H        0.7162931508    1.2485735204    3.0992002141
H        1.9172602277    2.5557795106    1.3480371345
H        1.1495415456   -1.1181960563    1.3880060109
H       -0.2636303184   -0.2813905375    1.4046512695
14   
torsion grid (-150,)
C        0.0052389602   -1.2586021429    3.1414888129
C        1.3869503712    0.6988545815    2.2931436590
C        1.3734686345    1.6517099062    1.1030204657
N        0.6650014855   -0.5889546773    1.9610981251
Cl      -0.3258998444    2.0507274782    0.6689016273
Cl       2.2551191807    0.9181095278   -0.2760443395
H       -0.7552387996   -0.5834061537    3.5321109144
H       -0.4501684603   -2.1885650445    2.8009049042
H        0.7624931736   -1.4620630440    3.8984938738
H        2.4082171648    0.4517027250    2.5864896433
H        0.8648393218    1.1576687444    3.1342905106
H        1.8737017517    2.5828464381    1.3644463906
H        1.3119486828   -1.2326646648    1.4911910691
H       -0.0657195233   -0.3644018998    1.2682384758
14   
torsion grid (-135,)
C       -0.0672039077   -1.1946426684    3.1168324199
C        1.4672878593    0.6625234862    2.2879952410
C        1.3091720741    1.6547764722    1.1426205321
N        0.7545728460   -0.6432399088    1.9768185619
Cl      -0.4362378703    1.9989299882    0.8818918352
Cl       2.0817859206    1.0030879583   -0.3393839888
H       -0.8421314334   -0.4665372979    3.3538715729
H       -0.5134510749   -2.1367638714    2.7976831728
H        0.5859012560   -1.3549523641    3.9744140022
H        2.5201620055    0.4438758448    2.4693017995
H        1.0196383089    1.0739331766    3.1935143889
H        1.7987202567    2.5948820340    1.3921758850
H        1.4351934308   -1.3403966040    1.6566437640
H        0.1217101658   -0.4793983309    1.1801295283
14   
torsion grid (-120,)
C       -0.1242503699   -1.1199459712    3.0565993478
C        1.5455052518    0.6498731451    2.2745871923
C        1.2448116525    1.6686587008    1.1826306791
N        0.8511792789   -0.6762792361    1.9917823704
Cl      -0.5217890980    1.9833507730    1.1101941825
Cl       1.8709712397    1.0750210644   -0.3919312700
H       -0.8910550148   -0.3523711459    3.1506243484
H       -0.5665538705   -2.0669533585    2.7462011412
H        0.4177021420   -1.2427031777    3.9938988945
H        2.6190721002    0.4677037156    2.3329519884
H        1.1862816896    1.0154838709    3.2369919695
H        1.7426045643    2.6109030275    1.4067289145
H        1.5574810506   -1.4056304220    1.8490132324
H        0.3508436494   -0.6000117240    1.0948742852
14   
torsion grid (-105,)
C       -0.1567209111   -1.1020097848    2.9865131230
C        1.6057072347    0.6232999347    2.2651211963
C        1.1567721436    1.6586019525    1.2385091361
N        0.9522808710   -0.7300033068    2.0270440621
Cl      -0.5964217170    2.0016833078    1.3837744136
Cl       1.5775193353    1.0892293614   -0.4146381265
H       -0.9281253072   -0.3372003603    2.9318337445
H       -0.5547453180   -2.0719409860    2.6872267382
H        0.2639401041   -1.1576250132    3.9900502786
H        2.6857072376    0.4900557747    2.1879566971
H        1.3508852086    0.9477487857    3.2745940797
H        1.6908640191    2.5920824379    1.4098518697
H        1.6745961961   -1.4567067016    2.0652989230
H        0.5999065818   -0.7505725626    1.0581737872
14   
torsion grid (-90,)
C       -0.2149961916   -1.0650695748    2.8811368214
C        1.6563996016    0.6068382424    2.2616037977
C        1.1078712162    1.6513348783    1.2893630131
N        1.0319408747   -0.7625226646    2.0776490089
Cl      -0.5654250984    2.1453442894    1.6826082407
Cl       1.2408040242    1.0327767789   -0.3978229597
H       -1.0021127376   -0.3815533058    2.5743115453
H       -0.5001843800   -2.0978761305    2.6797191953
H        0.0184007987   -0.9344353433    3.9372768535
H        2.7261720166    0.4937909297    2.0743589290
H        1.4993817956    0.9184951922    3.2950467472
H        1.7296519995    2.5433775865    1.3507224231
H        1.7400684190   -1.4689825599    2.3041395487
H        0.8357283150   -0.8781495416    1.0701414632
14   
torsion grid (-75,)
C       -0.2557239399   -1.0135562318    2.7562544657
C        1.7147064158    0.5944398690    2.2628532486
C        1.0770485381    1.6518817247    1.3596757258
N        1.1007255194   -0.7814532174    2.1244361644
Cl      -0.4939646480    2.2408272367    1.9767084665
Cl       0.9494807986    1.0159278982   -0.3218673871
H       -1.0006043497   -0.4419729606    2.2093255132
H       -0.4704499390   -2.0807336147    2.6968478414
H       -0.2135295082   -0.6882179132    3.7949710948
H        2.7641900548    0.4875558992    1.9780383206
H        1.6507155822    0.8911224214    3.3107959553
H        1.7427940256    2.5127341566    1.3187635645
H        1.7638303649   -1.4572953055    2.5194946230
H        1.0406612336   -0.9892740676    1.1155393221
14   
torsion grid (-60,)
C       -0.3087679703   -1.0295928995    2.6752517966
C        1.6983951157    0.5650575319    2.2370106360
C        0.9363107579    1.6037950000    1.4136026301
N        1.1113587904   -0.8298395040    2.1866846821
Cl      -0.5319146129    2.2079427255    2.2340767400
Cl       0.5835551965    0.9394118634   -0.2243903571
H       -0.9891757782   -0.5406279178    1.9835887228
H       -0.4965115938   -2.1032763680    2.7017063338
H       -0.4002829776   -0.5979233738    3.6706456293
H        2.7139094566    0.4763737392    1.8435827682
H        1.7405895580    0.8698925461    3.2841329223
H        1.5880710336    2.4638163749    1.2659033650
H        1.7360773168   -1.4446531772    2.7203202692
H        1.1570600848   -1.1462481159    1.2078604673
14   
torsion grid (-45,)
C       -0.3318088541   -1.0378366603    2.5881844550
C        1.7241694643    0.5496242638    2.1851891849
C        0.8862752481    1.5830807020    1.4381488061
N        1.1353251628   -0.8510684057    2.2498293348
Cl      -0.5132088388    2.1739864505    2.3787416290
Cl       0.4176846262    0.9321485569   -0.1759396167
H       -0.9330046333   -0.5922299086    1.8013491615
H       -0.5103786879   -2.1121811822    2.6442713708
H       -0.5371417089   -0.5639601242    3.5459516026
H        2.6925867636    0.4436988721    1.6915611465
H        1.8792350350    0.8831706871    3.2131308187
H        1.5197604047    2.4491979868    1.2496916771
H        1.7027673101   -1.3903785981    2.9131413004
H        1.2853639627   -1.2838473250    1.3294569871
14   
torsion grid (-30,)
C       -0.3549735230   -1.0198025920    2.4944333142
C        1.7541915132    0.5580644392    2.1248780697
C        0.8802955298    1.6195907810    1.4688404229
N        1.1411452283   -0.8330097571    2.2992818607
Cl      -0.4493079600    2.1881836400    2.5192447297
Cl       0.3108321213    1.0507987502   -0.1419890991
H       -0.8762258236   -0.6042276260    1.6376723747
H       -0.5270839658   -2.0945399381    2.5642938344
H       -0.6594271010   -0.5228085738    3.4121983636
H        2.6584901243    0.4152226822    1.5308760208
H        2.0342000832    0.9069649817    3.1206925825
H        1.5149421880    2.4854808529    1.2809070365
H        1.6332983070   -1.2876401762    3.0758804328
H        1.3880500544   -1.3732823906    1.4619658817
14   
torsion grid (-15,)
C       -0.3762232001   -0.9762354692    2.4059320664
C        1.7874770984    0.5727626114    2.0692361391
C        0.9112969110    1.6821474544    1.5031900353
N        1.1344980694   -0.7918251383    2.3503866630
Cl      -0.3341612691    2.2460243232    2.6564906970
Cl       0.2341489247    1.2223198271   -0.0979621796
H       -0.8094689860   -0.6202998068    1.4763343924
H       -0.5513847464   -2.0457636636    2.5283766032
H       -0.7713028364   -0.4239765168    3.2537990981
H        2.6081332452    0.3801978078    1.3770873070
H        2.2002975171    0.9192960596    3.0180489573
H        1.5672928799    2.5336978240    1.3213136324
H        1.5287786481   -1.1434842287    3.2289908101
H        1.4717678365   -1.4349925445    1.6263793044
14   
torsion grid (0,)
C       -0.3641504137   -1.0311403672    2.3282218744
C        1.7923008926    0.5509467464    2.0310956969
C        0.8963500573    1.6906836490    1.5641389731
N        1.1393719767   -0.7954308777    2.4060204390
Cl      -0.2252636900    2.2444832639    2.8491790794
Cl       0.0678109427    1.3146220014    0.0193409296
H       -0.6902192879   -0.8957959188    1.3015210130
H       -0.5320484312   -2.0579486039    2.6551622823
H       -0.8664989962   -0.3301802319    2.9876824247
H        2.5092668658    0.3326828961    1.2386790072
H        2.3371992705    0.8835787251    2.9154232183
H        1.5568152610    2.5330807717    1.3566160655
H        1.4249510736   -1.0106674428    3.3666682421
H        1.5827939144   -1.5157597933    1.8270710052
14   
torsion grid (15,)
C       -0.3576885567   -1.0349922163    2.2334028275
C        1.7963308576    0.5446867811    1.9872981916
C        0.8994825482    1.7189488771    1.6188719837
N        1.1250828743   -0.7611498467    2.4476435711
Cl      -0.0886486448    2.2485190497    3.0252912025
Cl      -0.0746015458    1.4197978136    0.1492524479
H       -0.5547529276   -1.1128846782    1.1679958441
H       -0.5715727194   -1.9800620372    2.7340604454
H       -0.9333233356   -0.2277217235    2.6754745538
H        2.3971820948    0.2914332521    1.1123293437
H        2.4620244063    0.8462370124    2.7969519292
H        1.5609323232    2.5529796605    1.3834364176
H        1.2830761338   -0.8337739736    3.4582746382
H        1.6531481940   -1.5372266130    2.0354099623
14   
torsion grid (30,)
C        0.5557503473   -1.5048770417    2.3505217460
C        0.6360044211    1.1533135313    2.3015944921
C        1.8032817008    1.1279720602    1.3229529229
N       -0.1300233758   -0.1563004057    2.5001956254
Cl       1.2521787465    0.5493804295   -0.2907700872
Cl       3.2224382362    0.2329547940    1.9389328021
H        1.3428333434   -1.5890774493    3.0957723205
H       -0.2111003625   -2.2629336253    2.5143909893
H        0.9624651246   -1.5834266940    1.3470981466
H        1.0125447201    1.4508284742    3.2821479945
H       -0.1016368655    1.8847428649    1.9670879825
H        2.1272013270    2.1593114298    1.1841145449
H       -0.9024819352   -0.1538073408    1.8239884844
H       -0.5725105537   -0.1132540939    3.4245120791
14   
torsion grid (45,)
C        0.5514789558   -1.5083007706    2.4486101079
C        0.6595709472    1.1163406075    2.3534357662
C        1.7629938363    1.1160972601    1.2995733128
N       -0.1535909020   -0.1649092194    2.4535481833
Cl       1.0909449592    0.5734756301   -0.2823505391
Cl       3.2107119815    0.1909740810    1.7901843637
H        1.2770284056   -1.5300748888    3.2592531318
H       -0.2149660338   -2.2696198534    2.5976209918
H        1.0417751887   -1.6438900005    1.4892684465
H        1.0974044773    1.2993376649    3.3366835267
H       -0.0576628108    1.9079623354    2.1262103210
H        2.0875857504    2.1466872512    1.1599208009
H       -0.8074382209   -0.1696586377    1.6602289237
H       -0.7321503322   -0.0940007537    3.2979827123
14   
torsion grid (60,)
C        0.5670456243   -1.4960757187    2.5368582926
C        0.6982702693    1.0974440386    2.3950676614
C        1.7474800009    1.1717147322    1.2853868232
N       -0.1389020751   -0.1642645280    2.3842938409
Cl       0.9974947827    0.7188192153   -0.2898179175
Cl       3.2132860264    0.2135990262    1.6421566277
H        1.2071847239   -1.4539734802    3.4166148078
H       -0.2011711724   -2.2606757320    2.6550668135
H        1.1574816062   -1.6838036256    1.6443435477
H        1.1770188712    1.1698436886    3.3731922510
H       -0.0056156233    1.9242785093    2.2733756781
H        2.0672982180    2.2084820523    1.1901353274
H       -0.6570215566   -0.1804713739    1.4945808513
H       -0.8405057110   -0.0728471222    3.1275508990
14   
torsion grid (75,)
C        0.5716330244   -1.4542363331    2.6255179390
C        0.7198060197    1.1240446498    2.4200847046
C        1.6992127897    1.3204398127    1.2613302155
N       -0.1089408922   -0.1374944637    2.3156287744
Cl       0.8428399752    1.0725259886   -0.3050229091
Cl       3.1578212696    0.2962209723    1.3995521444
H        1.0650379829   -1.3691381763    3.5929203452
H       -0.1977708331   -2.2260669021    2.6537880991
H        1.2983441241   -1.6662347940    1.8460096754
H        1.2482338151    1.1052983566    3.3743969229
H        0.0093940967    1.9542432905    2.4134065993
H        2.0381129677    2.3553258761    1.2720602201
H       -0.4900559705   -0.1743806924    1.3574739993
H       -0.9139754102   -0.0315951339    2.9427223276
14   
torsion grid (90,)
C        0.5383543079   -1.4663406638    2.7620976352
C        0.7604087075    1.0837780318    2.4032029990
C        1.6654935808    1.3542594065    1.2012171766
N       -0.0684851939   -0.1767305620    2.2515772495
Cl       0.6842478829    1.3289413197   -0.3098743793
Cl       3.0468297363    0.2217822332    1.1116982946
H        0.7764619015   -1.3381997037    3.8174914164
H       -0.2001452142   -2.2577768833    2.6323361069
H        1.4364859302   -1.6801673950    2.1889252713
H        1.3466832187    0.9996713997    3.3191710631
H        0.0578286655    1.9144475291    2.4960634869
H        2.0777192678    2.3578843420    1.2956823098
H       -0.3022821681   -0.2723597474    1.2500111943
H       -0.9629525815   -0.0298580727    2.7313530901
14   
torsion grid (105,)
C        0.5029496802   -1.4533983492    2.8822786165
C        0.8014453472    1.0513970221    2.3922239425
C        1.6332800557    1.4047169192    1.1631831202
N       -0.0121458076   -0.2166270999    2.1794784156
Cl       0.5481854204    1.6371323652   -0.2519712110
Cl       2.8741014686    0.1535862241    0.8352662057
H        0.4778072114   -1.2716236595    3.9562718071
H       -0.1483906617   -2.2884513759    2.6230403048
H        1.5198496399   -1.6408030188    2.5449628638
H        1.4440265467    0.8980223737    3.2598657762
H        0.1036152845    1.8647874600    2.5960314016
H        2.1521391841    2.3463106438    1.3369202961
H       -0.0767194559   -0.3904542782    1.1651241105
H       -0.9760586553   -0.0454691497    2.4842368208
14   
torsion grid (120,)
C        0.4881225475   -1.4461495739    2.9598400515
C        0.8571737083    1.0162409489    2.3833678179
C        1.5814404167    1.4892537460    1.1294115651
N        0.0764883906   -0.2639318542    2.1142296748
Cl       0.3870279299    1.8649885367   -0.1574176523
Cl       2.7536516282    0.2391245557    0.5925183895
H        0.3282363629   -1.1951869536    4.0080607562
H       -0.1238456710   -2.3028205481    2.6762694785
H        1.5407652316   -1.6473698011    2.7663066367
H        1.5770575911    0.8072758587    3.1752244052
H        0.1556655783    1.7792416616    2.7222697157
H        2.1393591523    2.3994863070    1.3439943529
H        0.1863036688   -0.5125620149    1.1208916638
H       -0.9248471708   -0.0840241757    2.2413470845
14   
torsion grid (135,)
C        0.4117327955   -1.4497950228    3.0411612800
C        0.9120449771    0.9580276615    2.3757432209
C        1.5264648366    1.5389131272    1.1082621512
N        0.1508166481   -0.3219083771    2.0722505230
Cl       0.2297670040    1.9890236585   -0.0467047467
Cl       2.6659794583    0.3469481008    0.3916056779
H        0.1432989450   -1.1193929652    4.0443908249
H       -0.1962990008   -2.3057763626    2.7475996666
H        1.4710913311   -1.6983937821    2.9882861471
H        1.7021913060    0.7103615558    3.0856329200
H        0.2214860156    1.6677060019    2.8325883207
H        2.0931381635    2.4379576172    1.3456101638
H        0.4261519378   -0.6416612038    1.1320264414
H       -0.8536016934   -0.1218423543    2.0183887709
14   
torsion grid (150,)
C        0.3273526793   -1.4302503018    3.0906048310
C        0.9853116839    0.9125688784    2.3566137294
C        1.4804234400    1.5945977889    1.0860983786
N        0.2385357085   -0.3620256349    2.0285105762
Cl       0.0843083862    2.0738129928    0.0670240721
Cl       2.5983605487    0.4934867057    0.2067247708
H       -0.0555506317   -1.0266044242    4.0278037599
H       -0.2711098361   -2.2840458539    2.7726425495
H        1.3731182663   -1.7168139064    3.1957578515
H        1.8378378405    0.6394464067    2.9805058080
H        0.3153203431    1.5659599195    2.9172501444
H        2.0370299801    2.4957210352    1.3386014815
H        0.6400784824   -0.7403758099    1.1567043772
H       -0.7407603947   -0.1398218380    1.8156249391
14   
torsion grid (165,)
C        0.2531242511   -1.4129869695    3.1575404564
C        1.0778836803    0.8475145468    2.3517922476
C        1.4493716070    1.6065978929    1.0820315777
N        0.3486121303   -0.4295999613    2.0182454538
Cl      -0.0392894182    2.0776617674    0.1963886064
Cl       2.5391821214    0.5974675829    0.0689559023
H       -0.2525111728   -0.9312513899    3.9941738073
H       -0.3157261638   -2.2787723120    2.8187509611
H        1.2625939965   -1.7092098257    3.4405236480
H        1.9819482629    0.5745699527    2.8991179561
H        0.4275642801    1.4498553014    2.9883950835
H        1.9883242662    2.5177185456    1.3366835369
H        0.8451133840   -0.8719454203    1.2295040534
H       -0.5867082989   -0.1937650886    1.6624950299
14   
torsion grid (180,)
C        0.1497368091   -1.3701004745    3.1984255609
C        1.1872139887    0.7740661363    2.3271202015
C        1.4379306105    1.5888006367    1.0619755762
N        0.4441114927   -0.4958817406    2.0059387975
Cl      -0.1295357601    2.0643392972    0.3241335144
Cl       2.4558417008    0.6444827344   -0.0782564352
H       -0.4596448547   -0.8037998365    3.9020920142
H       -0.3900069753   -2.2520241344    2.8538489042
H        1.0943224434   -1.6594796035    3.6580336960
H        2.1335510249    0.4952327471    2.7942878924
H        0.5789251764    1.3441084594    3.0317950286
H        1.9780346481    2.5016510427    1.3077985417
H        0.9948294229   -1.0194186051    1.3104249329
H       -0.4323392048   -0.2394192492    1.5293014804
