19   
torsion grid (-105,)
C        0.2978761116   -0.2694304235   -1.9466327644
C        0.3365507846    0.9754044970   -2.6675210362
C        0.4953073294    0.8017625042   -4.0736498637
C        0.4384783007   -1.3799746567   -2.7333179251
C        2.6261801672    2.0551190722   -2.1192933345
C        1.7460279122    3.2089362374   -2.5474765138
C        1.1259753952    1.9946253433   -1.8863800122
C       -0.4877432756    1.2774624844   -5.1521916553
S        0.6108884483   -0.9757471710   -4.3912720536
Br       0.6271624944   -3.1618307977   -2.1105371768
H        0.3036117999   -0.3152034320   -0.8621209596
H        3.0221640351    1.4083838263   -2.8957671901
H        3.2602095297    2.1815620138   -1.2458104957
H        1.7909905070    4.1335773519   -1.9797655974
H        1.5862987662    3.3407780671   -3.6125689755
H        0.8082972924    2.1305490661   -0.8551735561
H       -0.1779989733    0.9584154108   -6.1519359385
H       -1.4817764085    0.8714456336   -4.9487643782
H       -0.5711996283    2.3711761994   -5.1704709707
19   
torsion grid (-90,)
C        0.3462520476   -0.3595875885   -1.9064151641
C        0.3619201222    0.8797074975   -2.6382516202
C        0.4586085934    0.6937364642   -4.0350971872
C        0.4000703595   -1.4698694450   -2.7019068761
C        2.5982180889    2.0692827119   -2.1024627158
C        1.6932833643    3.1602809752   -2.6304768957
C        1.0939497968    1.9710785872   -1.9084641753
C       -0.4425539654    1.3332868965   -5.0894750910
S        0.4749616933   -1.0648245869   -4.3733421750
Br       0.5558557223   -3.2634104062   -2.1057659510
H        0.4018703981   -0.4049946180   -0.8234791062
H        3.0383586728    1.3880271251   -2.8238776617
H        3.2036400995    2.2744387475   -1.2238184358
H        1.6881409948    4.1201739652   -2.1226854292
H        1.5656566216    3.2201852854   -3.7059978209
H        0.7448051025    2.1652729127   -0.8965179070
H       -0.1451080378    1.0567225345   -6.1059911961
H       -1.4752984328    1.0120644971   -4.9311738715
H       -0.4208809624    2.4273513290   -5.0273383091
19   
torsion grid (-75,)
C        0.4595902860   -0.3955177527   -1.9300581510
C        0.4135199592    0.8447952956   -2.6590781143
C        0.4106763038    0.6610339846   -4.0468112180
C        0.4320938200   -1.4983450052   -2.7361307983
C        2.5808462541    2.1276135084   -2.0645034903
C        1.6925639268    3.1539551009   -2.7317633983
C        1.0690482307    2.0045446695   -1.9682502568
C       -0.4267756049    1.4206547208   -5.0628917521
S        0.3666938986   -1.0795277863   -4.4105282302
Br       0.6018189912   -3.3022433615   -2.1763937728
H        0.5893314515   -0.4482749585   -0.8540913146
H        3.0870742876    1.4112103046   -2.7041077982
H        3.1213520008    2.4105306852   -1.1655398003
H        1.6300623725    4.1460799731   -2.2946432150
H        1.6462941478    3.1361977499   -3.8148477687
H        0.6502951692    2.2639078829   -0.9976332154
H       -0.1291535037    1.2019458166   -6.0937356847
H       -1.4795858212    1.1495105887   -4.9446118505
H       -0.3449303375    2.5024277425   -4.9163810559
19   
torsion grid (-60,)
C        0.5198122666   -0.4802626519   -1.9243245530
C        0.4211778096    0.7597379172   -2.6495578617
C        0.2925058149    0.5732124967   -4.0215965748
C        0.4027244107   -1.5789601949   -2.7266556264
C        2.5293244337    2.0968977083   -1.9612872584
C        1.7192513707    3.0487146444   -2.8126888234
C        1.0151167172    1.9772299654   -2.0074811480
C       -0.4834325081    1.4334416531   -4.9958691670
S        0.1908692140   -1.1534290983   -4.3921195997
Br       0.5792937536   -3.3897809193   -2.1931594034
H        0.7314792932   -0.5361021297   -0.8617807040
H        3.0971554204    1.3271366984   -2.4750833409
H        2.9796812335    2.4685076791   -1.0452900154
H        1.6180154098    4.0788774466   -2.4841106649
H        1.7849523622    2.9226354433   -3.8876326174
H        0.5063916816    2.3314085108   -1.1122109985
H       -0.1893724891    1.2598350941   -6.0365602567
H       -1.5523706064    1.2186598100   -4.9039897365
H       -0.3391577815    2.4955579534   -4.7790560401
19   
torsion grid (-45,)
C        0.6040880872   -0.5557632539   -1.9175295366
C        0.4438556355    0.6845040099   -2.6315528717
C        0.1703522726    0.4975212639   -3.9753878946
C        0.3936277804   -1.6505620996   -2.7052618437
C        2.4788943535    2.0778969549   -1.8284516550
C        1.7813252599    2.9342865444   -2.8614850319
C        0.9798303817    1.9503192722   -2.0354354898
C       -0.5476135438    1.4355077250   -4.9130408206
S        0.0164823408   -1.2180778527   -4.3434361271
Br       0.5836478237   -3.4668966866   -2.1969587476
H        0.9091051437   -0.6142917087   -0.8782792693
H        3.0979658447    1.2633287062   -2.1923939750
H        2.8274318169    2.5451513409   -0.9120030557
H        1.6551633907    3.9934642072   -2.6568860506
H        1.9617927655    2.6924916758   -3.9036306552
H        0.3756919168    2.3949152531   -1.2455984914
H       -0.2641500022    1.2840997848   -5.9602562420
H       -1.6292371153    1.2874063751   -4.8313386162
H       -0.3333455583    2.4749070403   -4.6516468315
19   
torsion grid (-30,)
C        0.6082407260   -0.6640598622   -1.8470228646
C        0.4342938690    0.5717921269   -2.5636330984
C        0.0206756204    0.3799347221   -3.8671107071
C        0.2852164623   -1.7571258696   -2.5983333595
C        2.4043574467    1.9897022860   -1.6349872343
C        1.8734346019    2.7434866949   -2.8336981324
C        0.9410847407    1.8709266565   -2.0180560931
C       -0.5984444758    1.3850692573   -4.7988812992
S       -0.2248283412   -1.3252778259   -4.2023079676
Br       0.4271539455   -3.5753223612   -2.0824355438
H        0.9879925115   -0.7226709004   -0.8328564756
H        3.0390132015    1.1298118876   -1.8277639521
H        2.6534619883    2.5492331705   -0.7381278810
H        1.7611779012    3.8212622220   -2.7587356718
H        2.1651566895    2.3834414529   -3.8153503548
H        0.2545574058    2.4100618712   -1.3663743102
H       -0.3207377631    1.2156915280   -5.8449664510
H       -1.6909976522    1.3439498914   -4.7318388382
H       -0.2840152406    2.3944479790   -4.5236008269
19   
torsion grid (-15,)
C        0.5140372022   -0.7956814273   -1.7053401009
C        0.3612743620    0.4203303800   -2.4592281228
C       -0.2114407505    0.2123481095   -3.6955929164
C        0.0414987489   -1.8886681427   -2.3738345475
C        2.3068798453    1.8333501584   -1.4588428736
C        1.9522288505    2.4708011860   -2.7836053709
C        0.8898285196    1.7372118199   -1.9869312707
C       -0.7069368956    1.2373870634   -4.6744212851
S       -0.6000031567   -1.4771808061   -3.9369498326
Br       0.0786761574   -3.6902490944   -1.7865232618
H        0.9725569732   -0.8429384127   -0.7238403503
H        2.9121391604    0.9320116111   -1.4854943018
H        2.4923018043    2.4804604535   -0.6066659793
H        1.8952983045    3.5542453758   -2.8371399062
H        2.3204724605    1.9879570542   -3.6838446213
H        0.1656544067    2.3756886734   -1.4828896545
H       -0.5716435604    0.9168136416   -5.7125809075
H       -1.7741275290    1.4380197715   -4.5244049487
H       -0.1677513984    2.1775770660   -4.5358168828
19   
torsion grid (0,)
C        0.5166344569   -0.7938627828   -1.6858064290
C        0.3477989754    0.4114813569   -2.4522679978
C       -0.3744679352    0.2096624505   -3.6086760516
C       -0.0725089886   -1.8756193524   -2.2758243292
C        2.2473353967    1.8536953235   -1.3929106052
C        2.0088271049    2.4077522826   -2.7790679462
C        0.8733936990    1.7418203713   -2.0188997338
C       -0.7795055648    1.2177677019   -4.6438771924
S       -0.8515653031   -1.4645808321   -3.7749472302
Br      -0.0871816439   -3.6591709401   -1.6353212668
H        1.0500807467   -0.8410961352   -0.7431756865
H        2.8390687624    0.9465097702   -1.3136710541
H        2.3800803997    2.5534569889   -0.5731920969
H        1.9762193904    3.4860544839   -2.9064810178
H        2.4317344033    1.8607236118   -3.6164693820
H        0.1236095257    2.4227312203   -1.6200064814
H       -0.6557350845    0.8306449594   -5.6605495636
H       -1.8287181804    1.5151559227   -4.5286532257
H       -0.1645872997    2.1151379123   -4.5447186807
19   
torsion grid (15,)
C        1.2159077393   -1.1183667794   -2.1413266226
C        0.8168726991    0.1571895293   -2.6736592960
C        0.0285754583    0.0426941973   -3.7986613650
C        0.7537521186   -2.1643050634   -2.8880813251
C        2.4858304909    1.7577796416   -1.4638177003
C        1.9225627051    2.5335243915   -2.6327658358
C        1.0926156564    1.4479305569   -1.9717896268
C       -0.4472746230    1.1295568930   -4.7199579949
S       -0.1917587820   -1.6344752394   -4.2477833615
Br       1.0241769878   -4.0108475198   -2.5581159233
H        1.8114085715   -1.2372588596   -1.2430366069
H        3.2679082273    1.0338359747   -1.6733884232
H        2.5802321704    2.2629101139   -0.5071464735
H        1.6318558440    3.5682569141   -2.4752684789
H        2.3262310357    2.3195293132   -3.6179277679
H        0.2776678235    1.8001745680   -1.3419279794
H        0.2270719627    1.2425333382   -5.5770410128
H       -1.4497965045    0.9273124593   -5.1105050855
H       -0.4783014100    2.0838785413   -4.1897122164
19   
torsion grid (30,)
C        1.2847269074   -1.1209729084   -2.2062281014
C        0.8735173624    0.1580559564   -2.7207025838
C       -0.0109286630    0.0492768443   -3.7765488803
C        0.7584867306   -2.1647285639   -2.9127063008
C        2.5029582585    1.7686975623   -1.4632650277
C        1.8861313624    2.5807979878   -2.5792083342
C        1.1152058928    1.4259138797   -1.9641104294
C       -0.4108068624    1.1122429238   -4.7629230250
S       -0.2700282985   -1.6305414472   -4.2068430004
Br       1.0048018151   -4.0122244865   -2.5696465465
H        1.9274099101   -1.2428206391   -1.3413965426
H        3.3112964670    1.0915318803   -1.7237713802
H        2.5934362690    2.2263165785   -0.4825996943
H        1.5552808323    3.5921233779   -2.3606733388
H        2.2816938464    2.4385027333   -3.5804685461
H        0.2965455431    1.7067002239   -1.3047811150
H        0.2612029349    1.1056446449   -5.6284504730
H       -1.4325236841    0.9743577686   -5.1320272994
H       -0.3528820771    2.0989869952   -4.2977255721
19   
torsion grid (45,)
C        1.4023195771   -1.1335603938   -2.2554028092
C        0.9676486853    0.1444597217   -2.7530185259
C        0.0074638593    0.0343935024   -3.7456403644
C        0.8327387178   -2.1827083016   -2.9201471992
C        2.5607364776    1.7871240049   -1.4798086207
C        1.8073876714    2.6307524488   -2.4839576110
C        1.1724082136    1.3724743793   -1.9202446866
C       -0.3413777751    1.0351640984   -4.8183913856
S       -0.2691675176   -1.6539268782   -4.1514756069
Br       1.0793237038   -4.0270074594   -2.5576233122
H        2.0862638076   -1.2502357136   -1.4219558035
H        3.3985328119    1.2007384882   -1.8462364385
H        2.6834518949    2.1727849113   -0.4720449849
H        1.4157579266    3.5911480090   -2.1612803024
H        2.1460784540    2.6022564042   -3.5152400305
H        0.3813286013    1.5315098004   -1.1908296978
H        0.3866908810    0.9814871085   -5.6347786440
H       -1.3360229914    0.8611084902   -5.2415124768
H       -0.3244770245    2.0513873145   -4.4155971182
19   
torsion grid (60,)
C        1.4920855055   -1.1183715262   -2.1996002150
C        1.0454774976    0.1441336003   -2.7247420792
C        0.0155259800    0.0072007260   -3.6514396346
C        0.8740020517   -2.1900289180   -2.7808876543
C        2.6013995181    1.8432611131   -1.4666199688
C        1.7410903607    2.6756574533   -2.3922918994
C        1.2221587403    1.3547250454   -1.8552459292
C       -0.2777882219    0.8938741853   -4.8416744632
S       -0.2913710155   -1.7031861274   -3.9649411374
Br       1.1094955521   -4.0158979871   -2.3270930812
H        2.2121223946   -1.2060371767   -1.3932636352
H        3.4555789831    1.3310230023   -1.9003360504
H        2.7515385866    2.1946875984   -0.4500103104
H        1.3058451052    3.5926059716   -2.0056933386
H        2.0268997238    2.7155955634   -3.4390023217
H        0.4602994152    1.4266842877   -1.0827789558
H        0.4570506005    0.7099591219   -5.6315320148
H       -1.2754162408    0.7171011727   -5.2567361855
H       -0.2189770754    1.9498175593   -4.5620553887
19   
torsion grid (75,)
C        1.5365374814   -0.9846777085   -1.8672672214
C        1.0932594322    0.2140512240   -2.5286282746
C        0.0030428801   -0.0101910164   -3.3794126761
C        0.8604610630   -2.1061796988   -2.2599291105
C        2.6260340667    2.0588869463   -1.4430951260
C        1.6567507848    2.7991969424   -2.3402539777
C        1.2581179193    1.4733918549   -1.7216462945
C       -0.2359554087    0.6143341169   -4.7432717436
S       -0.3554755270   -1.7483240915   -3.4330168512
Br       1.0683191356   -3.8536901327   -1.5527527888
H        2.2881643555   -0.9825165223   -1.0850886768
H        3.4813577345    1.5812435258   -1.9125502119
H        2.8180505739    2.4612413563   -0.4526490844
H        1.1911752929    3.7034634696   -1.9593485859
H        1.8714945165    2.8141842306   -3.4044478912
H        0.5416460177    1.5289348453   -0.9060265706
H        0.5098324130    0.2440195719   -5.4522130830
H       -1.2305595926    0.3819037640   -5.1373179179
H       -0.1478058203    1.7046695963   -4.6971093030
19   
torsion grid (90,)
C        1.5267323780   -0.9771444211   -1.9860979383
C        1.1127582154    0.2498414844   -2.6135513372
C       -0.0349115298    0.0875679909   -3.4211179524
C        0.7642767389   -2.0611225242   -2.3239865041
C        2.6604519007    2.0570015884   -1.4649270833
C        1.6043322366    2.8306472194   -2.2271611770
C        1.2985400784    1.4412454347   -1.7064262530
C       -0.2157434110    0.5906162885   -4.8501932108
S       -0.4962655476   -1.6403476989   -3.4180529315
Br       0.9093263556   -3.8052801283   -1.5927096000
H        2.3113858210   -1.0116258886   -1.2373471952
H        3.4988310072    1.6582235061   -2.0289059827
H        2.9041832668    2.3803516983   -0.4569556343
H        1.1337666089    3.6773824892   -1.7361550106
H        1.7428922832    2.9480068500   -3.2976782449
H        0.6360524069    1.3927445494   -0.8462133106
H        0.5291055497    0.1216362398   -5.4981657790
H       -1.2111987553    0.3621359472   -5.2437552145
H       -0.0811782131    1.6764536028   -4.9118302007
19   
torsion grid (105,)
C        1.5596683200   -0.9110255383   -2.0536052656
C        1.1379108443    0.3174773541   -2.6739891745
C       -0.0604096480    0.1661278192   -3.4303269376
C        0.7457984740   -1.9835616924   -2.2995281292
C        2.6863829810    2.0591843280   -1.4174235383
C        1.6223364011    2.8771485451   -2.1208584820
C        1.3263633377    1.4550356553   -1.6915159336
C       -0.2398776384    0.4817929530   -4.9198208084
S       -0.5735291352   -1.5607400414   -3.3112247476
Br       0.8952114902   -3.7002025102   -1.5049330339
H        2.3806920015   -0.9429467513   -1.3446066585
H        3.5238155324    1.7022967551   -2.0101613617
H        2.9339047165    2.3163902710   -0.3914088874
H        1.1523651029    3.6876181099   -1.5714725702
H        1.7511221954    3.0642454505   -3.1826986787
H        0.6660404403    1.3449858511   -0.8355732396
H        0.5012448194   -0.0724903827   -5.5007163179
H       -1.2378235870    0.2094942991   -5.2763078047
H       -0.0994024095    1.5495627022   -5.1274003274
