27   
torsion grid (-75,)
C        1.9166928624   -0.6392961358    0.0918509871
C        0.6303106753   -0.5641547088    0.7424092243
C        4.9635709295   -3.8132366817    4.4786200894
C        6.2141741114   -3.6992320012    3.8660393534
C        2.9645092227   -1.3629874193    0.6904774032
C        0.6280741058   -1.3314884056    1.9067925177
C        3.8770250668   -3.1504592085    3.9140441376
C        6.3060473027   -2.9321199983    2.6999657907
C        0.9725936014   -0.5939100310    6.1225551716
C        2.3144614971   -0.3492063577    6.1152560302
C        2.9270906655   -1.7250539907    2.0889232306
C        1.8092367769   -1.0891069381    2.6777314656
C        4.0701228025   -2.3771840816    2.7540721154
C        1.6553141182   -0.8953760528    4.1146049094
N        5.2726003461   -2.2882923679    2.1491021360
N        0.5633570419   -0.9234555056    4.8403955591
O        2.7653047752   -0.5291176804    4.8344539448
H        2.0586294152   -0.2326332891   -0.9058828684
H       -0.2686456961   -0.2839389372    0.2009483418
H        4.8346793531   -4.4160233146    5.3739490019
H        7.0922065234   -4.1969162223    4.2675487035
H        3.8577897277   -1.5990468321    0.1209358304
H       -0.2935322608   -1.4065632592    2.4880733917
H        2.8871016920   -3.2438446990    4.3484438045
H        7.2598050924   -2.8310872931    2.1833499703
H        0.2786034145   -0.5474359160    6.9510573749
H        3.0439487902   -0.0435946462    6.8501444826
27   
torsion grid (-60,)
C        1.9198412666   -0.7390027236    0.0152176342
C        0.6697276715   -0.5821607137    0.6716008006
C        4.9156873248   -3.7949924250    4.4672264127
C        6.1834037944   -3.6406188907    3.9004157957
C        2.9622347265   -1.4182795083    0.6642643774
C        0.5972846636   -1.1760037444    1.9352218306
C        3.8335334331   -3.1423553018    3.8823502393
C        6.2956767033   -2.8452578443    2.7558225266
C        1.0707944921   -0.6965503737    6.1751748830
C        2.3935626313   -0.3722880146    6.1204884736
C        2.9122719677   -1.6819079977    2.0613129102
C        1.7943916613   -1.0724641177    2.6874383186
C        4.0475026008   -2.3390847215    2.7471696739
C        1.6841675183   -0.9065000848    4.1351666237
N        5.2660794284   -2.2111947785    2.1851194296
N        0.6284176199   -1.0226172071    4.9011497620
O        2.7994869949   -0.4925310563    4.8165997272
H        2.0505776898   -0.4121014812   -1.0129086172
H       -0.2192742798   -0.2748722373    0.1284025665
H        4.7704637664   -4.4207893628    5.3440633784
H        7.0586248522   -4.1280516631    4.3202992035
H        3.8512847469   -1.7125212754    0.1157280561
H       -0.3345688836   -1.1262114118    2.4979979176
H        2.8325663639   -3.2658975172    4.2831149428
H        7.2631488083   -2.7112194638    2.2733919142
H        0.4105045782   -0.7140970481    7.0318165064
H        3.1357758791   -0.0462673790    6.8333911979
27   
torsion grid (-45,)
C        1.9179645105   -0.8319082506   -0.0319040617
C        0.6949435699   -0.5959369743    0.6274349684
C        4.8966641786   -3.7927235882    4.4513869433
C        6.1734773483   -3.5961514605    3.9188255058
C        2.9624694665   -1.4625199427    0.6527119654
C        0.5904254400   -1.0218119361    1.9537663710
C        3.8155877020   -3.1473485149    3.8564576334
C        6.2969645166   -2.7696548570    2.7981184492
C        1.1139481479   -0.7578433136    6.2042996390
C        2.4290219194   -0.4087898234    6.1347971889
C        2.9060282980   -1.6532735851    2.0504505586
C        1.7873267240   -1.0716190405    2.6990959708
C        4.0392409449   -2.3118058454    2.7471405726
C        1.6984449337   -0.9216734314    4.1519700544
N        5.2668184659   -2.1436910659    2.2182637041
N        0.6584805224   -1.0742796060    4.9312429885
O        2.8162199273   -0.4990456565    4.8221631697
H        2.0326867985   -0.5860354700   -1.0842419223
H       -0.1822290772   -0.2681587202    0.0766416755
H        4.7442745464   -4.4437700724    5.3084394090
H        7.0488016807   -4.0755476647    4.3476215918
H        3.8522268427   -1.7891816851    0.1240819182
H       -0.3369404909   -0.8721312368    2.5023155362
H        2.8082604539   -3.3000627177    4.2306308810
H        7.2725773073   -2.6024236542    2.3432455784
H        0.4674944148   -0.8028469514    7.0704080421
H        3.1776363845   -0.0844797312    6.8417155442
27   
torsion grid (-30,)
C        1.9079327203   -0.9201871135   -0.0669238856
C        0.7112440199   -0.6060219509    0.5956641289
C        4.8964542066   -3.7989360461    4.4242474214
C        6.1784028684   -3.5659788591    3.9189641215
C        2.9606695354   -1.5006493770    0.6430135796
C        0.6078798601   -0.8734857050    1.9609109088
C        3.8129731967   -3.1590670216    3.8278290715
C        6.3052785737   -2.7099126921    2.8214885346
C        1.1287246367   -0.7963601359    6.2163017922
C        2.4429562323   -0.4459565281    6.1463126314
C        2.9071853147   -1.6333352489    2.0421691650
C        1.7860325811   -1.0764139515    2.7037000457
C        4.0405542546   -2.2934055879    2.7430334748
C        1.7065633974   -0.9364152543    4.1597423616
N        5.2724688498   -2.0897086138    2.2391389937
N        0.6705075471   -1.1014404710    4.9405727896
O        2.8259289570   -0.5212087768    4.8311719137
H        2.0017097028   -0.7562120307   -1.1371776089
H       -0.1558334510   -0.2619269242    0.0385331983
H        4.7422556212   -4.4737814579    5.2623524804
H        7.0551349853   -4.0398484196    4.3510343480
H        3.8501537149   -1.8488956152    0.1279165404
H       -0.3042222438   -0.6362582295    2.5015759532
H        2.8025696073   -3.3377933118    4.1819548387
H        7.2848952129   -2.5130133928    2.3876415822
H        0.4848596946   -0.8519109308    7.0837085761
H        3.1945169568   -0.1313302428    6.8544881714
27   
torsion grid (-15,)
C        1.8755303636   -1.0052429302   -0.0780931214
C        0.7066095069   -0.6112163991    0.5860376965
C        4.8937119335   -3.8040825789    4.4111442974
C        6.1778026816   -3.5442882182    3.9241669227
C        2.9423932287   -1.5353972491    0.6476245237
C        0.6341051643   -0.7303603825    1.9723910479
C        3.8080850179   -3.1668418118    3.8159050862
C        6.3042770644   -2.6652755092    2.8452423778
C        1.1154716464   -0.8085260855    6.2273989796
C        2.4357914971   -0.4811377753    6.1659609451
C        2.9018402490   -1.6165017960    2.0490434249
C        1.7756720714   -1.0801670530    2.7141319857
C        4.0359151906   -2.2785166882    2.7500061429
C        1.6997328636   -0.9444868620    4.1723097713
N        5.2691238942   -2.0480987858    2.2629988442
N        0.6581291072   -1.0984596153    4.9473400022
O        2.8233864797   -0.5549933031    4.8519963467
H        1.9438564546   -0.9245629258   -1.1598215120
H       -0.1520410395   -0.2533857151    0.0245373153
H        4.7399866295   -4.4970243164    5.2344584135
H        7.0562764490   -4.0148383778    4.3563519986
H        3.8286114473   -1.9009582815    0.1389101668
H       -0.2543208127   -0.4119926010    2.5091453565
H        2.7963973190   -3.3636793024    4.1567895906
H        7.2855185264   -2.4464674563    2.4259057530
H        0.4665488442   -0.8587287064    7.0913282799
H        3.1901207595   -0.1862926580    6.8797230137
27   
torsion grid (0,)
C        1.8474143335   -1.0836227813   -0.0847908778
C        0.7104481225   -0.6133739047    0.5825890878
C        4.9097568759   -3.8077648433    4.3864929164
C        6.1937812342   -3.5219031932    3.9136931775
C        2.9334873757   -1.5648436211    0.6454785304
C        0.6877276577   -0.5940939250    1.9755423214
C        3.8201776374   -3.1734622439    3.7955112884
C        6.3161556654   -2.6211932439    2.8526494249
C        1.0999833051   -0.8268255152    6.2292774995
C        2.4263654627   -0.5229561793    6.1822124178
C        2.9089569035   -1.5981917644    2.0482017373
C        1.7768866680   -1.0818750654    2.7179514529
C        4.0437509235   -2.2631970228    2.7475913978
C        1.6997154365   -0.9533847837    4.1779373323
N        5.2765262350   -2.0073473047    2.2739990982
N        0.6491443580   -1.0971742325    4.9422762365
O        2.8244923792   -0.5912659081    4.8711937319
H        1.8833603261   -1.0830376796   -1.1710768959
H       -0.1421251928   -0.2408935754    0.0211491011
H        4.7595315323   -4.5180592153    5.1955670951
H        7.0753357068   -3.9889651200    4.3433675093
H        3.8147395879   -1.9451716628    0.1388982347
H       -0.1694943329   -0.1987742981    2.5115164001
H        2.8087711368   -3.3886388141    4.1260870903
H        7.2972303625   -2.3812794583    2.4446630900
H        0.4425524121   -0.8737492940    7.0869067186
H        3.1798891463   -0.2497304899    6.9054100382
27   
torsion grid (15,)
C        1.8069449565   -1.1553205474   -0.0782031927
C        0.7041413934   -0.6075138042    0.5893712699
C        4.9268640594   -3.8253299028    4.3485540871
C        6.2108280096   -3.5098812999    3.8939589307
C        2.9161025030   -1.5902335195    0.6482753288
C        0.7565286170   -0.4606094392    1.9741210165
C        3.8334798297   -3.1895239276    3.7666599588
C        6.3300712284   -2.5791230492    2.8591530732
C        1.0614146337   -0.8155932420    6.2217382931
C        2.4015757540   -0.5763391134    6.2004813167
C        2.9182715714   -1.5790503883    2.0527138605
C        1.7766823504   -1.0792831788    2.7186105010
C        4.0545167408   -2.2494911128    2.7451785259
C        1.6913607827   -0.9554780574    4.1795643922
N        5.2864271896   -1.9639597154    2.2882903411
N        0.6219177115   -1.0548495872    4.9247372387
O        2.8197916662   -0.6550229632    4.8964625796
H        1.8069280547   -1.2347372060   -1.1622103829
H       -0.1426097110   -0.2195647475    0.0298045517
H        4.7801546836   -4.5591526348    5.1370358637
H        7.0949666630   -3.9770626107    4.3181572928
H        3.7881538163   -1.9854240504    0.1370143380
H       -0.0617875302    0.0104787372    2.5100122307
H        2.8221074848   -3.4242465925    4.0839767659
H        7.3109899099   -2.3149500243    2.4661202646
H        0.3870793328   -0.8369714339    7.0671651929
H        3.1545497714   -0.3462491104    6.9391520488
27   
torsion grid (30,)
C        1.7602351867   -1.2315621396   -0.0777964043
C        0.6909639145   -0.6134042680    0.5893299024
C        4.9698102927   -3.8333160099    4.2923429290
C        6.2491622415   -3.4901381304    3.8442467461
C        2.8986326972   -1.6178769547    0.6347117304
C        0.8391065580   -0.3508937779    1.9508530084
C        3.8677321135   -3.2000977524    3.7244958611
C        6.3548308795   -2.5355786282    2.8301154059
C        1.0103300602   -0.8181923486    6.1910402381
C        2.3613439095   -0.6496797440    6.2018705840
C        2.9341156418   -1.5639545344    2.0410476364
C        1.7776558814   -1.0873337581    2.6996485638
C        4.0752448443   -2.2362102801    2.7228269626
C        1.6778600455   -0.9692976050    4.1609073996
N        5.3022415702   -1.9230999221    2.2722511563
N        0.5884323391   -1.0199110635    4.8821611640
O        2.8040713998   -0.7370946660    4.9067248762
H        1.7202874219   -1.3880788501   -1.1526501290
H       -0.1520673769   -0.2114374465    0.0343787897
H        4.8337522594   -4.5859417770    5.0648917650
H        7.1398804854   -3.9540773349    4.2580976393
H        3.7599620532   -2.0237314149    0.1135655050
H        0.0655337394    0.1911686553    2.4874244825
H        2.8597752375   -3.4543173786    4.0374721954
H        7.3317064743   -2.2490128722    2.4428083433
H        0.3170680542   -0.8130320855    7.0212725855
H        3.1087158721   -0.4680096295    6.9595598332
27   
torsion grid (45,)
C        1.7101764458   -1.3261166154   -0.0309803475
C        0.6880792422   -0.6197089161    0.6325040736
C        5.0255140385   -3.8570494415    4.2566601309
C        6.2988727026   -3.4715548117    3.8253279722
C        2.8781131662   -1.6678764200    0.6613008510
C        0.9525147849   -0.2431632984    1.9507939457
C        3.9122942485   -3.2281867248    3.7063322715
C        6.3877862965   -2.4806744205    2.8453312698
C        0.9259851985   -0.7098252602    6.1728533868
C        2.2857805300   -0.7269319315    6.2442829426
C        2.9542404441   -1.5578130736    2.0675832725
C        1.7845000087   -1.0927189775    2.7164289629
C        4.1032474921   -2.2276499767    2.7383834314
C        1.6571971552   -0.9562242076    4.1732427472
N        5.3239156530   -1.8725168905    2.3034737932
N        0.5396828260   -0.8585438504    4.8472802246
O        2.7696798644   -0.8805725495    4.9704607522
H        1.6219616921   -1.5656193318   -1.0874682866
H       -0.1516879657   -0.2014008074    0.0847535201
H        4.9031442273   -4.6385472401    5.0024246777
H        7.1978068547   -3.9307404975    4.2265536786
H        3.7222377198   -2.0973163221    0.1308361247
H        0.2388676900    0.3751876339    2.4903859034
H        2.9085799736   -3.5119368535    4.0069488345
H        7.3595388581   -2.1599732235    2.4722461734
H        0.2038165625   -0.6076968765    6.9715863329
H        3.0166135138   -0.6464574798    7.0349545669
27   
torsion grid (60,)
C        1.6259169789   -1.4047679466    0.0552094312
C        0.6620183642   -0.5947997740    0.7111742972
C        5.1446879472   -3.8577355489    4.1799763509
C        6.4002516766   -3.3971423869    3.7698239907
C        2.8313464203   -1.7124104187    0.7068324421
C        1.0879877302   -0.1203925912    1.9529144511
C        4.0043139818   -3.2467991033    3.6663698748
C        6.4460375651   -2.3507232712    2.8466924175
C        0.8630303112   -0.5201109946    6.1519208439
C        2.1726446565   -0.8635530956    6.3023227862
C        2.9824895223   -1.5300748226    2.1104042158
C        1.8023418229   -1.0645432332    2.7423585543
C        4.1526494845   -2.1887305797    2.7545816336
C        1.6419485674   -0.9033378005    4.1906702353
N        5.3556576541   -1.7588701226    2.3393089903
N        0.5373720998   -0.5548264571    4.8045916580
O        2.6851245397   -1.1123112244    5.0552779459
H        1.4757621586   -1.7301902028   -0.9709018979
H       -0.1689731457   -0.1497719684    0.1716400938
H        5.0571365939   -4.6835604560    4.8816211350
H        7.3182568060   -3.8408031566    4.1445211546
H        3.6406545898   -2.1809895886    0.1552341367
H        0.4645488396    0.5885958132    2.4958062730
H        3.0135667630   -3.5843281272    3.9529244741
H        7.4025025841   -1.9694881640    2.4915651495
H        0.1370065240   -0.2598463106    6.9103014122
H        2.8494949069   -0.9739321574    7.1363251441
