
  -OEChem-12122420533D

 16 16  0     0  0  0  0  0  0999 V2000
    0.9252   -0.9489    1.8436 C   0  0  0  0  0  0  0  0  0  0  0  0
   -0.1179   -0.9169    4.9570 C   0  0  0  0  0  0  0  0  0  0  0  0
    0.8060    0.1975    5.4023 C   0  0  0  0  0  0  0  0  0  0  0  0
    1.2120   -0.7233    4.2749 C   0  0  0  0  0  0  0  0  0  0  0  0
    1.1095   -0.2646    0.4974 C   0  0  0  0  0  0  0  0  0  0  0  0
    1.2303   -0.1820    2.9435 N   0  0  0  0  0  0  0  0  0  0  0  0
    0.5190   -2.1037    1.9358 O   0  0  0  0  0  0  0  0  0  0  0  0
   -0.2313   -1.7889    5.5929 H   0  0  0  0  0  0  0  0  0  0  0  0
   -0.9994   -0.6457    4.3863 H   0  0  0  0  0  0  0  0  0  0  0  0
    0.5261    1.2147    5.1423 H   0  0  0  0  0  0  0  0  0  0  0  0
    1.3297    0.0981    6.3483 H   0  0  0  0  0  0  0  0  0  0  0  0
    1.9803   -1.4659    4.4806 H   0  0  0  0  0  0  0  0  0  0  0  0
    1.8571   -0.8172   -0.0786 H   0  0  0  0  0  0  0  0  0  0  0  0
    0.1667   -0.3187   -0.0529 H   0  0  0  0  0  0  0  0  0  0  0  0
    1.4189    0.7822    0.5715 H   0  0  0  0  0  0  0  0  0  0  0  0
    1.7034    0.7001    2.7974 H   0  0  0  0  0  0  0  0  0  0  0  0
  1  5  1  0  0  0  0
  1  6  1  0  0  0  0
  1  7  2  0  0  0  0
  2  3  1  0  0  0  0
  2  4  1  0  0  0  0
  2  8  1  0  0  0  0
  2  9  1  0  0  0  0
  3  4  1  0  0  0  0
  3 10  1  0  0  0  0
  3 11  1  0  0  0  0
  4  6  1  0  0  0  0
  4 12  1  0  0  0  0
  5 13  1  0  0  0  0
  5 14  1  0  0  0  0
  5 15  1  0  0  0  0
  6 16  1  0  0  0  0
M  END
$$$$
