17
0 1 C7H7NO2
C                    -1.308261311888    -1.168246329592    -1.107156900576
C                    -1.805838456709    -2.466663611835    -1.436757090577
C                    -0.168962086992    -1.017814821994    -0.367674326263
C                    -1.111376575530    -3.562922663393    -0.992111631809
C                     0.590861937589    -2.167441924426     0.118219580600
C                    -1.494305964213    -4.987681158145    -1.247664615648
C                    -2.738797061794    -5.278174644267    -2.056511648776
N                     0.027175805694    -3.397335631609    -0.252452603355
O                     1.623249469156    -2.118266486383     0.786325579131
O                    -0.788770970523    -5.882097104048    -0.794418434384
H                    -1.848713891889    -0.290252975080    -1.452786021750
H                    -2.708452315417    -2.584438471906    -2.022998146927
H                     0.224526487878    -0.040836668849    -0.107377041184
H                    -2.662570238204    -4.841270042654    -3.057386735657
H                    -3.624037519374    -4.850821003376    -1.574668514084
H                    -2.858239856684    -6.358604941808    -2.140894109203
H                     0.507539921833    -4.242731511191     0.053896947620
