12
0 1 C3H7NO
C                     0.851526381692    -0.982181901915     1.689138128006
C                     0.942017669131    -0.215720010698     0.378392741872
C                     1.032532293285    -0.813587460790     4.158946592378
N                     1.076832591023    -0.242427256431     2.820783169682
O                     0.592357339468    -2.184386078168     1.716658570942
H                     1.708578685823    -0.681955947287    -0.246264754310
H                    -0.011658715886    -0.310244872049    -0.147661344277
H                     1.178319900436     0.845602359238     0.500209177016
H                     0.265888851951    -0.324440003099     4.770262938401
H                     2.002485947049    -0.719732326117     4.660263162667
H                     0.785782669772    -1.870817010133     4.058017125705
H                     1.287056546044     0.740539695751     2.720259439052
