26
0 1 C9H13N3O
C                     1.449588521372    -4.555763030431     3.799135299704
C                     0.093259937314    -4.316850770121     3.864550122696
C                     1.226573892785    -2.433559952443     4.119998371782
C                     0.778898227722     0.288437547990     2.281338428845
C                     2.462559112301    -0.596367126864     5.418590271921
C                     1.010161173243    -0.192883092999     5.440244462678
C                     1.550666935554    -0.988669286428     4.273188289675
C                     1.210181464494     0.821736863919     0.925383036431
C                    -1.314598637619    -2.258974786077     4.242594724173
N                     2.145138591984    -3.379761709360     3.958969360276
N                    -0.044435248510    -2.956926490417     4.061282757649
N                     1.776502242719    -0.271115948019     3.036449839317
O                    -0.388762011650     0.373886543919     2.664312093786
H                     1.956161520022    -5.500617735007     3.648622325275
H                    -0.766132346109    -4.969196278495     3.793298623240
H                     3.199409416291     0.173850472602     5.212397742352
H                     2.795436232179    -1.397192584910     6.069351810026
H                     0.345218209777    -0.707750521085     6.125761661466
H                     0.751889165768     0.841034808478     5.242645940347
H                     0.779171595378     0.184377855238     0.147174056734
H                     0.797607203337     1.824787064932     0.796268771294
H                     2.294939198636     0.856383879229     0.791865201968
H                    -1.208646808249    -1.220259570387     3.931186784117
H                    -2.073386258049    -2.735506420936     3.617724244747
H                    -1.635609477141    -2.309012603053     5.288844677203
H                     2.663765279099    -0.453632835177     2.582745877431
