
  -OEChem-12102412493D

 25 25  0     1  0  0  0  0  0999 V2000
   -5.7572   -3.0883    4.9788 C   0  0  0  0  0  0  0  0  0  0  0  0
   -6.1644   -3.3513    6.2687 C   0  0  0  0  0  0  0  0  0  0  0  0
   -5.9184   -5.2335    5.1331 C   0  0  0  0  0  0  0  0  0  0  0  0
   -8.3338   -7.3858    4.6179 C   0  0  0  0  0  0  0  0  0  0  0  0
   -9.5511   -7.4962    3.7170 C   0  0  0  0  0  0  0  0  0  0  0  0
   -4.7189   -7.0955    3.9509 C   0  0  0  0  0  0  0  0  0  0  0  0
   -6.6437   -5.4713    7.5608 C   0  0  0  0  0  0  0  0  0  0  0  0
   -5.9522   -6.6946    4.7656 C   0  0  2  0  0  0  0  0  0  0  0  0
   -5.6081   -4.2656    4.2804 N   0  0  0  0  0  0  0  0  0  0  0  0
   -6.2746   -4.7274    6.3585 N   0  0  0  0  0  0  0  0  0  0  0  0
   -7.1728   -7.0052    4.0070 N   0  0  0  0  0  0  0  0  0  0  0  0
   -8.3992   -7.6446    5.8236 O   0  0  0  0  0  0  0  0  0  0  0  0
   -5.5649   -2.1266    4.5206 H   0  0  0  0  0  0  0  0  0  0  0  0
   -6.3790   -2.7085    7.1109 H   0  0  0  0  0  0  0  0  0  0  0  0
   -9.9879   -8.4904    3.8394 H   0  0  0  0  0  0  0  0  0  0  0  0
  -10.2963   -6.7663    4.0465 H   0  0  0  0  0  0  0  0  0  0  0  0
   -9.3305   -7.3281    2.6594 H   0  0  0  0  0  0  0  0  0  0  0  0
   -4.6461   -6.4931    3.0414 H   0  0  0  0  0  0  0  0  0  0  0  0
   -3.8101   -6.9227    4.5341 H   0  0  0  0  0  0  0  0  0  0  0  0
   -4.7748   -8.1546    3.6835 H   0  0  0  0  0  0  0  0  0  0  0  0
   -7.2173   -4.8136    8.2165 H   0  0  0  0  0  0  0  0  0  0  0  0
   -7.2658   -6.3267    7.2927 H   0  0  0  0  0  0  0  0  0  0  0  0
   -5.7511   -5.8106    8.0971 H   0  0  0  0  0  0  0  0  0  0  0  0
   -6.0073   -7.3014    5.6701 H   0  0  0  0  0  0  0  0  0  0  0  0
   -7.2246   -6.6207    3.0712 H   0  0  0  0  0  0  0  0  0  0  0  0
  1  2  2  0  0  0  0
  1  9  1  0  0  0  0
  1 13  1  0  0  0  0
  2 10  1  0  0  0  0
  2 14  1  0  0  0  0
  3  8  1  0  0  0  0
  3  9  2  0  0  0  0
  3 10  1  0  0  0  0
  4  5  1  0  0  0  0
  4 11  1  0  0  0  0
  4 12  2  0  0  0  0
  5 15  1  0  0  0  0
  5 16  1  0  0  0  0
  5 17  1  0  0  0  0
  6  8  1  0  0  0  0
  6 18  1  0  0  0  0
  6 19  1  0  0  0  0
  6 20  1  0  0  0  0
  7 10  1  0  0  0  0
  7 21  1  0  0  0  0
  7 22  1  0  0  0  0
  7 23  1  0  0  0  0
  8 11  1  0  0  0  0
  8 24  1  0  0  0  0
 11 25  1  0  0  0  0
M  END
$$$$
