
  -OEChem-12122420533D

 16 16  0     0  0  0  0  0  0999 V2000
    1.6363   -2.6898    4.7353 C   0  0  0  0  0  0  0  0  0  0  0  0
    1.8414   -1.5935    3.8999 C   0  0  0  0  0  0  0  0  0  0  0  0
    0.6493   -3.6170    4.3896 C   0  0  0  0  0  0  0  0  0  0  0  0
    1.0442   -1.4768    2.7515 C   0  0  0  0  0  0  0  0  0  0  0  0
   -0.0970   -3.4135    3.2190 C   0  0  0  0  0  0  0  0  0  0  0  0
   -1.1811   -4.3855    2.7905 C   0  0  0  0  0  0  0  0  0  0  0  0
   -1.4500   -5.5922    3.6763 C   0  0  0  0  0  0  0  0  0  0  0  0
    0.1009   -2.3554    2.4127 N   0  0  0  0  0  0  0  0  0  0  0  0
   -1.8166   -4.2033    1.7669 O   0  0  0  0  0  0  0  0  0  0  0  0
    2.2290   -2.8237    5.6364 H   0  0  0  0  0  0  0  0  0  0  0  0
    2.5953   -0.8437    4.1226 H   0  0  0  0  0  0  0  0  0  0  0  0
    0.4698   -4.4788    5.0230 H   0  0  0  0  0  0  0  0  0  0  0  0
    1.1771   -0.6323    2.0761 H   0  0  0  0  0  0  0  0  0  0  0  0
   -1.7475   -5.2833    4.6844 H   0  0  0  0  0  0  0  0  0  0  0  0
   -0.5559   -6.2178    3.7730 H   0  0  0  0  0  0  0  0  0  0  0  0
   -2.2524   -6.1802    3.2294 H   0  0  0  0  0  0  0  0  0  0  0  0
  1  2  1  0  0  0  0
  1  3  2  0  0  0  0
  1 10  1  0  0  0  0
  2  4  2  0  0  0  0
  2 11  1  0  0  0  0
  3  5  1  0  0  0  0
  3 12  1  0  0  0  0
  4  8  1  0  0  0  0
  4 13  1  0  0  0  0
  5  6  1  0  0  0  0
  5  8  2  0  0  0  0
  6  7  1  0  0  0  0
  6  9  2  0  0  0  0
  7 14  1  0  0  0  0
  7 15  1  0  0  0  0
  7 16  1  0  0  0  0
M  END
$$$$
