
  -OEChem-12122420533D

 23 24  0     0  0  0  0  0  0999 V2000
   -3.6885  -11.2322    9.4230 C   0  0  0  0  0  0  0  0  0  0  0  0
   -4.3119  -12.0693   10.3256 C   0  0  0  0  0  0  0  0  0  0  0  0
   -3.7717  -10.1423   11.2800 C   0  0  0  0  0  0  0  0  0  0  0  0
   -5.6212   -9.4312   13.7883 C   0  0  0  0  0  0  0  0  0  0  0  0
   -2.5136   -8.1158   12.2234 C   0  0  0  0  0  0  0  0  0  0  0  0
   -2.3948   -9.2100   13.2567 C   0  0  0  0  0  0  0  0  0  0  0  0
   -3.6192   -9.1312   12.3594 C   0  0  0  0  0  0  0  0  0  0  0  0
   -6.8747   -8.7719   14.3321 C   0  0  0  0  0  0  0  0  0  0  0  0
   -3.3574  -10.0346   10.0256 N   0  0  0  0  0  0  0  0  0  0  0  0
   -4.3506  -11.3619   11.5087 N   0  0  0  0  0  0  0  0  0  0  0  0
   -4.8416   -8.6574   12.9771 N   0  0  0  0  0  0  0  0  0  0  0  0
   -5.3294  -10.5965   14.0802 O   0  0  0  0  0  0  0  0  0  0  0  0
   -3.4631  -11.4218    8.3814 H   0  0  0  0  0  0  0  0  0  0  0  0
   -4.7168  -13.0672   10.2344 H   0  0  0  0  0  0  0  0  0  0  0  0
   -2.7219   -7.1097   12.5761 H   0  0  0  0  0  0  0  0  0  0  0  0
   -1.9185   -8.1805   11.3198 H   0  0  0  0  0  0  0  0  0  0  0  0
   -1.7030  -10.0242   13.0689 H   0  0  0  0  0  0  0  0  0  0  0  0
   -2.5412   -8.9526   14.3005 H   0  0  0  0  0  0  0  0  0  0  0  0
   -7.7416   -9.3733   14.0461 H   0  0  0  0  0  0  0  0  0  0  0  0
   -6.8204   -8.7731   15.4242 H   0  0  0  0  0  0  0  0  0  0  0  0
   -7.0181   -7.7451   13.9849 H   0  0  0  0  0  0  0  0  0  0  0  0
   -4.7342  -11.6311   12.4126 H   0  0  0  0  0  0  0  0  0  0  0  0
   -5.2195   -7.7797   12.6429 H   0  0  0  0  0  0  0  0  0  0  0  0
  1  2  2  0  0  0  0
  1  9  1  0  0  0  0
  1 13  1  0  0  0  0
  2 10  1  0  0  0  0
  2 14  1  0  0  0  0
  3  7  1  0  0  0  0
  3  9  2  0  0  0  0
  3 10  1  0  0  0  0
  4  8  1  0  0  0  0
  4 11  1  0  0  0  0
  4 12  2  0  0  0  0
  5  6  1  0  0  0  0
  5  7  1  0  0  0  0
  5 15  1  0  0  0  0
  5 16  1  0  0  0  0
  6  7  1  0  0  0  0
  6 17  1  0  0  0  0
  6 18  1  0  0  0  0
  7 11  1  0  0  0  0
  8 19  1  0  0  0  0
  8 20  1  0  0  0  0
  8 21  1  0  0  0  0
 10 22  1  0  0  0  0
 11 23  1  0  0  0  0
M  END
$$$$
