15
0 1 C6H6N2O
C                    -0.028344218391     1.334176845012     5.158803806895
C                    -0.974833477287     0.363461054354     4.832547254850
C                     0.865489870710     1.698677245742     4.147063251349
C                    -0.123214923508     0.230977073408     2.720171209336
C                    -0.187367838773    -0.404242434768     1.334063294166
C                    -1.257419198469    -1.450236133734     1.111384740734
N                    -1.029121492157    -0.193441438458     3.615807580765
N                     0.826102951623     1.154482472677     2.927819642997
O                     0.597098354518    -0.067003264809     0.466053322826
H                     0.012592232112     1.783306689049     6.146324519478
H                    -1.709310490279     0.020236006416     5.559680611102
H                     1.635749857272     2.449401057457     4.319846918570
H                    -2.249821475570    -1.027609373570     1.296036429304
H                    -1.139555145579    -2.275469689534     1.820394476034
H                    -1.185993044075    -1.817126653296     0.086760762732
