
  -OEChem-12122420533D

 19 19  0     0  0  0  0  0  0999 V2000
    0.6270   -0.2637   -0.8681 C   0  0  0  0  0  0  0  0  0  0  0  0
    0.7382   -0.4070    0.5192 C   0  0  0  0  0  0  0  0  0  0  0  0
   -0.4745    0.4157   -1.3959 C   0  0  0  0  0  0  0  0  0  0  0  0
   -0.2398    0.1228    1.3598 C   0  0  0  0  0  0  0  0  0  0  0  0
   -1.4638    0.9529   -0.5671 C   0  0  0  0  0  0  0  0  0  0  0  0
   -1.3467    0.8059    0.8252 C   0  0  0  0  0  0  0  0  0  0  0  0
   -3.4570    2.0138    1.4972 C   0  0  0  0  0  0  0  0  0  0  0  0
   -4.2363    2.4061    2.7440 C   0  0  0  0  0  0  0  0  0  0  0  0
   -2.2949    1.3137    1.7436 N   0  0  0  0  0  0  0  0  0  0  0  0
   -3.8555    2.3116    0.3753 O   0  0  0  0  0  0  0  0  0  0  0  0
    1.3876   -0.6755   -1.5256 H   0  0  0  0  0  0  0  0  0  0  0  0
    1.5868   -0.9318    0.9502 H   0  0  0  0  0  0  0  0  0  0  0  0
   -0.5723    0.5338   -2.4721 H   0  0  0  0  0  0  0  0  0  0  0  0
   -0.1457    0.0068    2.4384 H   0  0  0  0  0  0  0  0  0  0  0  0
   -2.3142    1.4777   -0.9796 H   0  0  0  0  0  0  0  0  0  0  0  0
   -4.3351    3.4947    2.7633 H   0  0  0  0  0  0  0  0  0  0  0  0
   -3.7814    2.0745    3.6819 H   0  0  0  0  0  0  0  0  0  0  0  0
   -5.2431    1.9865    2.6700 H   0  0  0  0  0  0  0  0  0  0  0  0
   -2.0819    1.1341    2.7158 H   0  0  0  0  0  0  0  0  0  0  0  0
  1  2  1  0  0  0  0
  1  3  2  0  0  0  0
  1 11  1  0  0  0  0
  2  4  2  0  0  0  0
  2 12  1  0  0  0  0
  3  5  1  0  0  0  0
  3 13  1  0  0  0  0
  4  6  1  0  0  0  0
  4 14  1  0  0  0  0
  5  6  2  0  0  0  0
  5 15  1  0  0  0  0
  6  9  1  0  0  0  0
  7  8  1  0  0  0  0
  7  9  1  0  0  0  0
  7 10  2  0  0  0  0
  8 16  1  0  0  0  0
  8 17  1  0  0  0  0
  8 18  1  0  0  0  0
  9 19  1  0  0  0  0
M  END
$$$$
