
  -OEChem-12102412493D

 15 14  0     0  0  0  0  0  0999 V2000
    0.8881   -0.9374    1.7876 C   0  0  0  0  0  0  0  0  0  0  0  0
    0.9820   -0.2039    0.4587 C   0  0  0  0  0  0  0  0  0  0  0  0
   -0.2172   -0.5460    4.8592 C   0  0  0  0  0  0  0  0  0  0  0  0
    1.1667   -0.7693    4.2414 C   0  0  0  0  0  0  0  0  0  0  0  0
    1.2842   -0.2270    2.8896 N   0  0  0  0  0  0  0  0  0  0  0  0
    0.4939   -2.1012    1.8587 O   0  0  0  0  0  0  0  0  0  0  0  0
    1.6206   -0.7816   -0.2147 H   0  0  0  0  0  0  0  0  0  0  0  0
   -0.0144   -0.1619    0.0102 H   0  0  0  0  0  0  0  0  0  0  0  0
    1.3793    0.8121    0.5415 H   0  0  0  0  0  0  0  0  0  0  0  0
   -0.4509    0.5219    4.9344 H   0  0  0  0  0  0  0  0  0  0  0  0
   -0.9848   -1.0278    4.2477 H   0  0  0  0  0  0  0  0  0  0  0  0
   -0.2595   -0.9749    5.8666 H   0  0  0  0  0  0  0  0  0  0  0  0
    1.3787   -1.8385    4.1756 H   0  0  0  0  0  0  0  0  0  0  0  0
    1.9467   -0.3102    4.8579 H   0  0  0  0  0  0  0  0  0  0  0  0
    1.4978    0.7549    2.7803 H   0  0  0  0  0  0  0  0  0  0  0  0
  1  2  1  0  0  0  0
  1  5  1  0  0  0  0
  1  6  2  0  0  0  0
  2  7  1  0  0  0  0
  2  8  1  0  0  0  0
  2  9  1  0  0  0  0
  3  4  1  0  0  0  0
  3 10  1  0  0  0  0
  3 11  1  0  0  0  0
  3 12  1  0  0  0  0
  4  5  1  0  0  0  0
  4 13  1  0  0  0  0
  4 14  1  0  0  0  0
  5 15  1  0  0  0  0
M  END
$$$$
