22
0 1 C8H12N2
C                    -2.119731206568    -4.062299598118     2.197371356653
C                    -2.249470996211    -5.455429028110     2.286700438643
C                    -1.963647149716    -3.306216597120     3.350878518688
C                    -2.206035294659    -6.015464361136     3.561951178703
C                    -1.947770838543    -3.970041081049     4.606948876198
C                     0.089202735639    -1.693762284852     5.600159249233
C                    -1.638652267270    -4.068927590307     7.023639140716
C                    -1.415384803103    -1.892857320334     5.834430503695
N                    -2.053662833846    -5.312115583716     4.690941724612
N                    -1.844643423742    -3.287774432655     5.806124957574
H                    -2.135854902796    -3.566376264374     1.229611094802
H                    -2.369318537582    -6.079195654459     1.406546109615
H                    -1.857640619298    -2.230696016323     3.277047714255
H                    -2.291760505216    -7.094332421716     3.691441921675
H                     0.673790727051    -2.219449222561     6.361960343374
H                     0.389137129499    -2.077347070094     4.620312029546
H                     0.348507855783    -0.630160282994     5.646753583096
H                    -1.716707705046    -3.397239400733     7.882186926104
H                    -0.657502567838    -4.562945499793     7.045504245635
H                    -2.399781311644    -4.845416770529     7.105603541755
H                    -1.993485097788    -1.322030397074     5.102273938063
H                    -1.693286914380    -1.486953247958     6.811841873055
