20
0 1 C8H9NO2
C                     7.547440900487    -0.732084518155    -3.079615348277
C                     8.037398041645    -2.059007163833    -3.236960492631
C                     7.500700974098     0.116757855558    -4.148598992407
C                     8.460393638325    -2.472582728816    -4.474912706174
C                     7.959805866766    -0.284398819892    -5.465199713793
C                     8.786894876620    -3.935216749040    -4.644846203771
C                     8.155384974776    -4.698771996841    -5.799044037318
C                     9.103192662816    -1.957582519585    -6.823888904471
N                     8.461716914733    -1.610696666038    -5.548782232907
O                     7.960397889062     0.438313308390    -6.466194913318
O                     9.462496744425    -4.508961767111    -3.804319236079
H                     7.200552491014    -0.401875562691    -2.103385546960
H                     8.056093872498    -2.765954817254    -2.416601500333
H                     7.127813019327     1.132354276724    -4.069121147456
H                     8.921069441169    -4.973332639788    -6.531238026362
H                     7.367218800887    -4.137110295867    -6.303962722172
H                     7.744774908297    -5.627324503133    -5.394238330451
H                     8.368944487217    -2.296070489552    -7.559841178858
H                     9.854746081519    -2.729552912727    -6.661529012280
H                     9.578863617401    -1.058820134328    -7.216185999808
