23
0 1 C8H11N3O
C                    -1.859567808615    -2.934505717677     5.572423425881
C                    -1.244682035303    -3.758039974327     4.651650094466
C                    -0.207373393806    -1.802345918870     4.777351537019
C                     1.363428343023    -1.050346620741     2.098665307408
C                     2.124284130870    -0.809168169610     5.277415216760
C                     1.098160030728     0.258553376290     5.570543994808
C                     0.819781760505    -0.763985961008     4.498717668911
C                     1.349499949037    -0.394798357259     0.730433130709
N                    -1.207916167983    -1.718933667816     5.642673049999
N                    -0.186885954130    -3.023598791923     4.158334143841
N                     0.901186281471    -0.287345495564     3.132543832808
O                     1.778441174477    -2.204265149264     2.254584747812
H                    -2.728548148082    -3.145625643801     6.182189155674
H                    -1.457933360228    -4.763004383939     4.316074022644
H                     3.021922019846    -0.528319424995     4.736450641932
H                     2.241648751601    -1.620859149237     5.987522804268
H                     0.499265955680     0.177742354024     6.470391733108
H                     1.315495508323     1.270872915205     5.241918771483
H                     2.364805677287    -0.416166337230     0.325946168443
H                     0.717723071999    -0.986934400110     0.062766169342
H                     0.991422637789     0.638167363912     0.741057612071
H                     0.505285039529    -3.275757315627     3.455420143709
H                     0.420723457907     0.576594044672     2.913902382900
