
  -OEChem-12122420533D

 26 27  0     0  0  0  0  0  0999 V2000
   -2.6734   -1.5603    4.9496 C   0  0  0  0  0  0  0  0  0  0  0  0
   -2.0621   -2.7846    4.7818 C   0  0  0  0  0  0  0  0  0  0  0  0
   -0.5840   -1.1477    4.6029 C   0  0  0  0  0  0  0  0  0  0  0  0
    1.4299   -0.7155    2.0055 C   0  0  0  0  0  0  0  0  0  0  0  0
    1.9273   -0.7196    5.1700 C   0  0  0  0  0  0  0  0  0  0  0  0
    1.1541    0.5465    5.4392 C   0  0  0  0  0  0  0  0  0  0  0  0
    0.6871   -0.4113    4.3615 C   0  0  0  0  0  0  0  0  0  0  0  0
    1.3719   -0.1086    0.6136 C   0  0  0  0  0  0  0  0  0  0  0  0
    0.3135   -3.5231    4.3685 C   0  0  0  0  0  0  0  0  0  0  0  0
   -1.7469   -0.5496    4.8369 N   0  0  0  0  0  0  0  0  0  0  0  0
   -0.7273   -2.5150    4.5519 N   0  0  0  0  0  0  0  0  0  0  0  0
    0.8853    0.0498    3.0035 N   0  0  0  0  0  0  0  0  0  0  0  0
    1.9493   -1.8143    2.2062 O   0  0  0  0  0  0  0  0  0  0  0  0
   -3.7184   -1.3551    5.1445 H   0  0  0  0  0  0  0  0  0  0  0  0
   -2.4400   -3.7975    4.8052 H   0  0  0  0  0  0  0  0  0  0  0  0
    2.8744   -0.6518    4.6474 H   0  0  0  0  0  0  0  0  0  0  0  0
    1.8607   -1.5253    5.8936 H   0  0  0  0  0  0  0  0  0  0  0  0
    0.5409    0.6084    6.3313 H   0  0  0  0  0  0  0  0  0  0  0  0
    1.5855    1.4845    5.1036 H   0  0  0  0  0  0  0  0  0  0  0  0
    2.3664   -0.1661    0.1651 H   0  0  0  0  0  0  0  0  0  0  0  0
    0.6974   -0.7119   -0.0014 H   0  0  0  0  0  0  0  0  0  0  0  0
    1.0292    0.9297    0.6002 H   0  0  0  0  0  0  0  0  0  0  0  0
   -0.1072   -4.3725    3.8256 H   0  0  0  0  0  0  0  0  0  0  0  0
    1.1294   -3.1034    3.7808 H   0  0  0  0  0  0  0  0  0  0  0  0
    0.6864   -3.8723    5.3376 H   0  0  0  0  0  0  0  0  0  0  0  0
    0.3322    0.8538    2.7315 H   0  0  0  0  0  0  0  0  0  0  0  0
  1  2  2  0  0  0  0
  1 10  1  0  0  0  0
  1 14  1  0  0  0  0
  2 11  1  0  0  0  0
  2 15  1  0  0  0  0
  3  7  1  0  0  0  0
  3 10  2  0  0  0  0
  3 11  1  0  0  0  0
  4  8  1  0  0  0  0
  4 12  1  0  0  0  0
  4 13  2  0  0  0  0
  5  6  1  0  0  0  0
  5  7  1  0  0  0  0
  5 16  1  0  0  0  0
  5 17  1  0  0  0  0
  6  7  1  0  0  0  0
  6 18  1  0  0  0  0
  6 19  1  0  0  0  0
  7 12  1  0  0  0  0
  8 20  1  0  0  0  0
  8 21  1  0  0  0  0
  8 22  1  0  0  0  0
  9 11  1  0  0  0  0
  9 23  1  0  0  0  0
  9 24  1  0  0  0  0
  9 25  1  0  0  0  0
 12 26  1  0  0  0  0
M  END
$$$$
