
  -OEChem-12122420533D

 17 17  0     0  0  0  0  0  0999 V2000
    1.8320   -1.1303   -0.1283 C   0  0  0  0  0  0  0  0  0  0  0  0
    2.8374   -1.7818    0.5986 C   0  0  0  0  0  0  0  0  0  0  0  0
    0.8559   -0.3866    0.5421 C   0  0  0  0  0  0  0  0  0  0  0  0
    2.8647   -1.6889    1.9888 C   0  0  0  0  0  0  0  0  0  0  0  0
    0.8835   -0.2935    1.9361 C   0  0  0  0  0  0  0  0  0  0  0  0
    1.8879   -0.9437    2.6721 C   0  0  0  0  0  0  0  0  0  0  0  0
    1.9597   -0.8737    4.1683 C   0  0  0  0  0  0  0  0  0  0  0  0
    0.9080   -0.0701    4.9134 C   0  0  0  0  0  0  0  0  0  0  0  0
    2.8499   -1.4534    4.7807 O   0  0  0  0  0  0  0  0  0  0  0  0
    1.8103   -1.2026   -1.2128 H   0  0  0  0  0  0  0  0  0  0  0  0
    3.5961   -2.3599    0.0775 H   0  0  0  0  0  0  0  0  0  0  0  0
    0.0755    0.1193   -0.0201 H   0  0  0  0  0  0  0  0  0  0  0  0
    3.6343   -2.1856    2.5715 H   0  0  0  0  0  0  0  0  0  0  0  0
    0.1190    0.2875    2.4426 H   0  0  0  0  0  0  0  0  0  0  0  0
   -0.0961   -0.4595    4.7135 H   0  0  0  0  0  0  0  0  0  0  0  0
    0.9215    0.9789    4.5984 H   0  0  0  0  0  0  0  0  0  0  0  0
    1.1116   -0.1285    5.9831 H   0  0  0  0  0  0  0  0  0  0  0  0
  1  2  1  0  0  0  0
  1  3  2  0  0  0  0
  1 10  1  0  0  0  0
  2  4  2  0  0  0  0
  2 11  1  0  0  0  0
  3  5  1  0  0  0  0
  3 12  1  0  0  0  0
  4  6  1  0  0  0  0
  4 13  1  0  0  0  0
  5  6  2  0  0  0  0
  5 14  1  0  0  0  0
  6  7  1  0  0  0  0
  7  8  1  0  0  0  0
  7  9  2  0  0  0  0
  8 15  1  0  0  0  0
  8 16  1  0  0  0  0
  8 17  1  0  0  0  0
M  END
$$$$
