16
0 1 C7H7NO
C                     1.636277981420    -2.689810217218     4.735296559353
C                     1.841372050226    -1.593505868090     3.899865372404
C                     0.649284197043    -3.616985359899     4.389638010635
C                     1.044216986481    -1.476785245441     2.751464373569
C                    -0.097002146253    -3.413458274774     3.218960069426
C                    -1.181085422873    -4.385474656012     2.790524213514
C                    -1.450036887931    -5.592228179329     3.676308316009
N                     0.100929313211    -2.355399552367     2.412656907569
O                    -1.816612885726    -4.203252356516     1.766874498383
H                     2.229006496367    -2.823681896607     5.636409311651
H                     2.595314248943    -0.843737708084     4.122561065886
H                     0.469760987077    -4.478822526703     5.023016146163
H                     1.177142475850    -0.632316643085     2.076078134893
H                    -1.747543056907    -5.283274605510     4.684371275153
H                    -0.555879275758    -6.217778471551     3.772986764562
H                    -2.252367892183    -6.180158723884     3.229422141011
