22
0 1 C8H12N2
C                    -0.148598654703    -1.808290150602     1.206609735285
C                     0.137911010749    -0.456248716883     0.976741393969
C                     0.181739441167    -2.388271246928     2.424957944046
C                     0.748713202902     0.248940787590     2.013661577060
C                     0.814796821220    -1.587731634537     3.412563811826
C                     0.490179379711    -0.563272743950     6.467440395385
C                     0.759281856069    -3.443003609014     5.010779314757
C                     1.646438078029    -1.210544951029     5.696006730812
N                     1.076477957623    -0.281184375260     3.197021821634
N                     1.202943569111    -2.111974971523     4.629797700384
H                    -0.631664098791    -2.409209058745     0.439571712964
H                    -0.107853231881     0.032296399556     0.039209311340
H                    -0.042423396131    -3.432628550038     2.605534830507
H                     0.985825038297     1.306023865973     1.893069038845
H                    -0.119475826131     0.044619994857     5.793268147440
H                    -0.152888043462    -1.318946421083     6.932460277452
H                     0.876317090445     0.086122786687     7.261283963397
H                     1.145861429775    -3.671741807728     6.005541171872
H                     1.147988955000    -4.202987762619     4.323105665918
H                    -0.336583064303    -3.535140796332     5.041520880541
H                     2.278961232521    -1.792656678850     6.374867949228
H                     2.267968962413    -0.436873512451     5.245374854305
