
  -OEChem-12102412493D

 20 20  0     0  0  0  0  0  0999 V2000
    7.5474   -0.7321   -3.0796 C   0  0  0  0  0  0  0  0  0  0  0  0
    8.0374   -2.0590   -3.2370 C   0  0  0  0  0  0  0  0  0  0  0  0
    7.5007    0.1168   -4.1486 C   0  0  0  0  0  0  0  0  0  0  0  0
    8.4604   -2.4726   -4.4749 C   0  0  0  0  0  0  0  0  0  0  0  0
    7.9598   -0.2844   -5.4652 C   0  0  0  0  0  0  0  0  0  0  0  0
    8.7869   -3.9352   -4.6448 C   0  0  0  0  0  0  0  0  0  0  0  0
    8.1554   -4.6988   -5.7990 C   0  0  0  0  0  0  0  0  0  0  0  0
    9.1032   -1.9576   -6.8239 C   0  0  0  0  0  0  0  0  0  0  0  0
    8.4617   -1.6107   -5.5488 N   0  0  0  0  0  0  0  0  0  0  0  0
    7.9604    0.4383   -6.4662 O   0  0  0  0  0  0  0  0  0  0  0  0
    9.4625   -4.5090   -3.8043 O   0  0  0  0  0  0  0  0  0  0  0  0
    7.2006   -0.4019   -2.1034 H   0  0  0  0  0  0  0  0  0  0  0  0
    8.0561   -2.7660   -2.4166 H   0  0  0  0  0  0  0  0  0  0  0  0
    7.1278    1.1324   -4.0691 H   0  0  0  0  0  0  0  0  0  0  0  0
    8.9211   -4.9733   -6.5312 H   0  0  0  0  0  0  0  0  0  0  0  0
    7.3672   -4.1371   -6.3040 H   0  0  0  0  0  0  0  0  0  0  0  0
    7.7448   -5.6273   -5.3942 H   0  0  0  0  0  0  0  0  0  0  0  0
    8.3689   -2.2961   -7.5598 H   0  0  0  0  0  0  0  0  0  0  0  0
    9.8547   -2.7296   -6.6615 H   0  0  0  0  0  0  0  0  0  0  0  0
    9.5789   -1.0588   -7.2162 H   0  0  0  0  0  0  0  0  0  0  0  0
  1  2  1  0  0  0  0
  1  3  2  0  0  0  0
  1 12  1  0  0  0  0
  2  4  2  0  0  0  0
  2 13  1  0  0  0  0
  3  5  1  0  0  0  0
  3 14  1  0  0  0  0
  4  6  1  0  0  0  0
  4  9  1  0  0  0  0
  5  9  1  0  0  0  0
  5 10  2  0  0  0  0
  6  7  1  0  0  0  0
  6 11  2  0  0  0  0
  7 15  1  0  0  0  0
  7 16  1  0  0  0  0
  7 17  1  0  0  0  0
  8  9  1  0  0  0  0
  8 18  1  0  0  0  0
  8 19  1  0  0  0  0
  8 20  1  0  0  0  0
M  END
$$$$
