
  -OEChem-12102412493D

 22 22  0     0  0  0  0  0  0999 V2000
    0.4021   -1.8243    1.0034 C   0  0  0  0  0  0  0  0  0  0  0  0
    0.2929   -0.4304    0.9144 C   0  0  0  0  0  0  0  0  0  0  0  0
    0.6469   -2.4222    2.2332 C   0  0  0  0  0  0  0  0  0  0  0  0
    0.4462    0.2956    2.0954 C   0  0  0  0  0  0  0  0  0  0  0  0
    0.7737   -1.5952    3.3809 C   0  0  0  0  0  0  0  0  0  0  0  0
    2.8084   -0.8570    5.7884 C   0  0  0  0  0  0  0  0  0  0  0  0
    1.3027   -3.5392    4.7740 C   0  0  0  0  0  0  0  0  0  0  0  0
    1.3242   -1.2404    5.7511 C   0  0  0  0  0  0  0  0  0  0  0  0
    0.6843   -0.2513    3.2926 N   0  0  0  0  0  0  0  0  0  0  0  0
    0.9795   -2.1282    4.6382 N   0  0  0  0  0  0  0  0  0  0  0  0
    0.3003   -2.4446    0.1158 H   0  0  0  0  0  0  0  0  0  0  0  0
    0.1051    0.0726   -0.0289 H   0  0  0  0  0  0  0  0  0  0  0  0
    0.7355   -3.4996    2.3030 H   0  0  0  0  0  0  0  0  0  0  0  0
    0.3804    1.3835    2.0832 H   0  0  0  0  0  0  0  0  0  0  0  0
    3.4480   -1.7422    5.8780 H   0  0  0  0  0  0  0  0  0  0  0  0
    3.0825   -0.3211    4.8755 H   0  0  0  0  0  0  0  0  0  0  0  0
    3.0133   -0.2044    6.6446 H   0  0  0  0  0  0  0  0  0  0  0  0
    1.4499   -3.7666    5.8313 H   0  0  0  0  0  0  0  0  0  0  0  0
    2.2188   -3.8211    4.2340 H   0  0  0  0  0  0  0  0  0  0  0  0
    0.4832   -4.1708    4.4118 H   0  0  0  0  0  0  0  0  0  0  0  0
    0.7132   -0.3418    5.6665 H   0  0  0  0  0  0  0  0  0  0  0  0
    1.0392   -1.7508    6.6774 H   0  0  0  0  0  0  0  0  0  0  0  0
  1  2  1  0  0  0  0
  1  3  2  0  0  0  0
  1 11  1  0  0  0  0
  2  4  2  0  0  0  0
  2 12  1  0  0  0  0
  3  5  1  0  0  0  0
  3 13  1  0  0  0  0
  4  9  1  0  0  0  0
  4 14  1  0  0  0  0
  5  9  2  0  0  0  0
  5 10  1  0  0  0  0
  6  8  1  0  0  0  0
  6 15  1  0  0  0  0
  6 16  1  0  0  0  0
  6 17  1  0  0  0  0
  7 10  1  0  0  0  0
  7 18  1  0  0  0  0
  7 19  1  0  0  0  0
  7 20  1  0  0  0  0
  8 10  1  0  0  0  0
  8 21  1  0  0  0  0
  8 22  1  0  0  0  0
M  END
$$$$
