22
0 1 C7H11N3O
C                     4.064345497758    -2.907751539218     4.328591201552
C                     3.864733636061    -2.785494982097     5.683079328439
C                     2.421353940318    -1.520506390472     4.555401306057
C                     0.697366122131     0.829732652196     2.348911225919
C                     0.882092324144     1.063525466958     0.859241166286
C                    -0.075086219155    -1.179433934883     4.717127243949
C                     1.275903162643    -0.584668077091     4.276469262466
N                     3.161730760616    -2.118885962393     3.638489216703
N                     2.809116510846    -1.894324575278     5.813976724981
N                     1.295508088193    -0.288007797886     2.851014312296
O                     0.042781553851     1.601150531412     3.054709093680
H                     4.799091660863    -3.511316883759     3.812471427972
H                     4.357817833526    -3.225169032641     6.537974769760
H                    -0.102588685941     1.154149636086     0.393288873974
H                     1.401690236652     2.015219384808     0.716275830537
H                     1.444527973247     0.270375660852     0.359155149975
H                    -0.258711182226    -2.126428801436     4.201297448897
H                    -0.089124375078    -1.362852069040     5.797633399044
H                    -0.873338193173    -0.473958246083     4.477960793366
H                     1.426100027774     0.357764694520     4.817721254605
H                     2.402738819574    -1.576634767262     6.684025145146
H                     1.922437813109    -0.852151763320     2.286701682210
