18
0 1 C5H11NO
C                     4.883485980152     3.113347590818    -2.862515185204
C                     4.190627511212     4.137825029066    -3.750683421537
C                     4.459481136696     0.179451532913    -1.476798511913
C                     4.150471708222     1.344246087186    -4.455063549466
C                     5.494112056838     0.795169426806    -2.424867221905
N                     4.925411240608     1.813952923559    -3.313263205526
O                     5.398680677883     3.447763346353    -1.792931861583
H                     3.141010244837     3.880514785296    -3.926098237226
H                     4.241696377065     5.101420920275    -3.244305165393
H                     4.681312054072     4.222208383803    -4.726039482487
H                     4.029005249719     0.953144270873    -0.834857389516
H                     3.648115897392    -0.309836505995    -2.026791141003
H                     4.931720773952    -0.573424823524    -0.836467151883
H                     4.616419147979     0.437917674340    -4.851959935612
H                     4.139854952846     2.085492271556    -5.255031190085
H                     3.110962451543     1.104159630272    -4.191331449197
H                     5.948574514879     0.020764707368    -3.053119085498
H                     6.287167960448     1.273104042744    -1.849135106365
