16
0 1 C5H9NO
C                     0.925192437384    -0.948946498565     1.843635764498
C                    -0.117911006785    -0.916853774025     4.957045623598
C                     0.806048521783     0.197547980615     5.402330836447
C                     1.212008866864    -0.723315067504     4.274928684728
C                     1.109517549530    -0.264565766047     0.497393477995
N                     1.230300348119    -0.181998526330     2.943453643925
O                     0.518953231788    -2.103732364412     1.935826742679
H                    -0.231306428012    -1.788876644324     5.592921210971
H                    -0.999414298483    -0.645708969973     4.386276936290
H                     0.526141987776     1.214713570965     5.142257853712
H                     1.329700053436     0.098110645507     6.348295596058
H                     1.980328032504    -1.465902996567     4.480620009394
H                     1.857070785403    -0.817206371440    -0.078641617956
H                     0.166681814765    -0.318708458271    -0.052902655392
H                     1.418931391103     0.782191207544     0.571459342945
H                     1.703423060429     0.700148191939     2.797393759225
