
  -OEChem-12102412493D

 22 22  0     1  0  0  0  0  0999 V2000
    4.0643   -2.9078    4.3286 C   0  0  0  0  0  0  0  0  0  0  0  0
    3.8647   -2.7855    5.6831 C   0  0  0  0  0  0  0  0  0  0  0  0
    2.4214   -1.5205    4.5554 C   0  0  0  0  0  0  0  0  0  0  0  0
    0.6974    0.8297    2.3489 C   0  0  0  0  0  0  0  0  0  0  0  0
    0.8821    1.0635    0.8592 C   0  0  0  0  0  0  0  0  0  0  0  0
   -0.0751   -1.1794    4.7171 C   0  0  0  0  0  0  0  0  0  0  0  0
    1.2759   -0.5847    4.2765 C   0  0  2  0  0  0  0  0  0  0  0  0
    3.1617   -2.1189    3.6385 N   0  0  0  0  0  0  0  0  0  0  0  0
    2.8091   -1.8943    5.8140 N   0  0  0  0  0  0  0  0  0  0  0  0
    1.2955   -0.2880    2.8510 N   0  0  0  0  0  0  0  0  0  0  0  0
    0.0428    1.6012    3.0547 O   0  0  0  0  0  0  0  0  0  0  0  0
    4.7991   -3.5113    3.8125 H   0  0  0  0  0  0  0  0  0  0  0  0
    4.3578   -3.2252    6.5380 H   0  0  0  0  0  0  0  0  0  0  0  0
   -0.1026    1.1541    0.3933 H   0  0  0  0  0  0  0  0  0  0  0  0
    1.4017    2.0152    0.7163 H   0  0  0  0  0  0  0  0  0  0  0  0
    1.4445    0.2704    0.3592 H   0  0  0  0  0  0  0  0  0  0  0  0
   -0.2587   -2.1264    4.2013 H   0  0  0  0  0  0  0  0  0  0  0  0
   -0.0891   -1.3629    5.7976 H   0  0  0  0  0  0  0  0  0  0  0  0
   -0.8733   -0.4740    4.4780 H   0  0  0  0  0  0  0  0  0  0  0  0
    1.4261    0.3578    4.8177 H   0  0  0  0  0  0  0  0  0  0  0  0
    2.4027   -1.5766    6.6840 H   0  0  0  0  0  0  0  0  0  0  0  0
    1.9224   -0.8522    2.2867 H   0  0  0  0  0  0  0  0  0  0  0  0
  1  2  2  0  0  0  0
  1  8  1  0  0  0  0
  1 12  1  0  0  0  0
  2  9  1  0  0  0  0
  2 13  1  0  0  0  0
  3  7  1  0  0  0  0
  3  8  2  0  0  0  0
  3  9  1  0  0  0  0
  4  5  1  0  0  0  0
  4 10  1  0  0  0  0
  4 11  2  0  0  0  0
  5 14  1  0  0  0  0
  5 15  1  0  0  0  0
  5 16  1  0  0  0  0
  6  7  1  0  0  0  0
  6 17  1  0  0  0  0
  6 18  1  0  0  0  0
  6 19  1  0  0  0  0
  7 10  1  0  0  0  0
  7 20  1  0  0  0  0
  9 21  1  0  0  0  0
 10 22  1  0  0  0  0
M  END
$$$$
