26
0 1 C9H13N3O
C                    -2.673435161815    -1.560274290692     4.949649033261
C                    -2.062127631884    -2.784624628463     4.781787989416
C                    -0.583965239795    -1.147699637943     4.602886102288
C                     1.429935461862    -0.715510963089     2.005488599086
C                     1.927283070777    -0.719555252839     5.170005673512
C                     1.154119298357     0.546484533440     5.439249979946
C                     0.687115938393    -0.411314348428     4.361466933735
C                     1.371947164763    -0.108601922382     0.613630501467
C                     0.313536253756    -3.523064062200     4.368535735833
N                    -1.746935804891    -0.549636238822     4.836900954516
N                    -0.727339878241    -2.514981110741     4.551917118633
N                     0.885284601542     0.049752558709     3.003478675316
O                     1.949342404899    -1.814337143256     2.206201313426
H                    -3.718394869679    -1.355095056105     5.144523282518
H                    -2.439963472952    -3.797479371918     4.805201054095
H                     2.874420820469    -0.651820956172     4.647418005015
H                     1.860729696558    -1.525263328463     5.893587827338
H                     0.540913244639     0.608359764154     6.331310219411
H                     1.585507153463     1.484529706293     5.103615105953
H                     2.366415979414    -0.166090697362     0.165121287046
H                     0.697408985485    -0.711886967046    -0.001389323016
H                     1.029188157902     0.929666175608     0.600160909415
H                    -0.107227977256    -4.372481529829     3.825606045558
H                     1.129360657742    -3.103380024753     3.780790530305
H                     0.686430918494    -3.872259816606     5.337645055606
H                     0.332227353764     0.853769960771     2.731453288634
