
  -OEChem-12122420533D

 18 17  0     0  0  0  0  0  0999 V2000
    2.8335   -2.4232    1.9522 C   0  0  0  0  0  0  0  0  0  0  0  0
    2.2312   -2.8987    0.6352 C   0  0  0  0  0  0  0  0  0  0  0  0
    5.0110   -0.6206    0.0889 C   0  0  0  0  0  0  0  0  0  0  0  0
    4.7694   -1.5778    3.1798 C   0  0  0  0  0  0  0  0  0  0  0  0
    4.9864   -2.0090    0.7415 C   0  0  0  0  0  0  0  0  0  0  0  0
    4.1649   -2.0759    1.9486 N   0  0  0  0  0  0  0  0  0  0  0  0
    2.1455   -2.3788    2.9745 O   0  0  0  0  0  0  0  0  0  0  0  0
    2.6743   -3.8485    0.3174 H   0  0  0  0  0  0  0  0  0  0  0  0
    1.1647   -3.0487    0.8010 H   0  0  0  0  0  0  0  0  0  0  0  0
    2.3695   -2.1759   -0.1742 H   0  0  0  0  0  0  0  0  0  0  0  0
    4.0066   -0.3161   -0.2216 H   0  0  0  0  0  0  0  0  0  0  0  0
    5.3939    0.1364    0.7799 H   0  0  0  0  0  0  0  0  0  0  0  0
    5.6567   -0.6265   -0.7960 H   0  0  0  0  0  0  0  0  0  0  0  0
    5.7057   -2.1118    3.3790 H   0  0  0  0  0  0  0  0  0  0  0  0
    4.0735   -1.7442    4.0004 H   0  0  0  0  0  0  0  0  0  0  0  0
    4.9867   -0.5044    3.1139 H   0  0  0  0  0  0  0  0  0  0  0  0
    6.0052   -2.3036    1.0188 H   0  0  0  0  0  0  0  0  0  0  0  0
    4.6390   -2.7534    0.0232 H   0  0  0  0  0  0  0  0  0  0  0  0
  1  2  1  0  0  0  0
  1  6  1  0  0  0  0
  1  7  2  0  0  0  0
  2  8  1  0  0  0  0
  2  9  1  0  0  0  0
  2 10  1  0  0  0  0
  3  5  1  0  0  0  0
  3 11  1  0  0  0  0
  3 12  1  0  0  0  0
  3 13  1  0  0  0  0
  4  6  1  0  0  0  0
  4 14  1  0  0  0  0
  4 15  1  0  0  0  0
  4 16  1  0  0  0  0
  5  6  1  0  0  0  0
  5 17  1  0  0  0  0
  5 18  1  0  0  0  0
M  END
$$$$
