25
0 1 C8H13N3O
C                     5.153145240896    -2.805521672468     4.561999479110
C                     4.926843691566    -2.704821096105     5.913976813594
C                     3.355708774182    -1.627005023945     4.775437074414
C                     1.780015905313    -1.483632523375     2.084854036214
C                     2.313084769858    -1.203314210121     0.689679738478
C                     0.813086361722    -1.338632215495     4.990544636575
C                     3.170617614523    -1.566106913658     7.316871552829
C                     2.141182881207    -0.773876695834     4.455409964743
N                     4.176635690046    -2.126096737445     3.864658043096
N                     3.776978559933    -1.940315541286     6.047517466178
N                     2.099291964352    -0.505526106207     3.015339108263
O                     1.113121881347    -2.479021709490     2.341276272999
H                     5.957364979157    -3.321700756230     4.053939106199
H                     5.456703297417    -3.088172768203     6.775018235459
H                     3.335479625902    -1.592548930481     0.633256535896
H                     1.697350122216    -1.728878034751    -0.041028119872
H                     2.335611891343    -0.134923551389     0.452789501332
H                     0.673265090036    -2.374107596630     4.686031531609
H                     0.783263611621    -1.269093832006     6.081087759326
H                    -0.015261068581    -0.747578752798     4.590583213691
H                     3.936881450585    -1.579819816100     8.094404995483
H                     2.763745258978    -0.554115332319     7.259379819748
H                     2.368971577252    -2.256124410074     7.597132704360
H                     2.285930925019     0.208410475303     4.926574827209
H                     2.860979555273     0.089888348217     2.710509258985
