25
0 1 C8H13N3O
C                    -5.757180494800    -3.088323604875     4.978790065529
C                    -6.164414622345    -3.351325895685     6.268664998813
C                    -5.918388616917    -5.233481559453     5.133100325662
C                    -8.333768458741    -7.385823655594     4.617866304773
C                    -9.551106457623    -7.496184642401     3.717027983776
C                    -4.718906761073    -7.095504199981     3.950936513719
C                    -6.643666212192    -5.471269439901     7.560792443687
C                    -5.952163839231    -6.694641715309     4.765646343498
N                    -5.608129695213    -4.265612583436     4.280406891258
N                    -6.274605309342    -4.727427180928     6.358462085128
N                    -7.172781593796    -7.005178444465     4.006984767788
O                    -8.399188938638    -7.644635397365     5.823562346810
H                    -5.564946120143    -2.126624268914     4.520581874228
H                    -6.379043660139    -2.708507281054     7.110908866090
H                    -9.987887406397    -8.490398584140     3.839386857311
H                   -10.296309733923    -6.766346201041     4.046496593864
H                    -9.330517386866    -7.328062121512     2.659408716584
H                    -4.646115064887    -6.493104770421     3.041359815358
H                    -3.810147419249    -6.922654935953     4.534090969359
H                    -4.774810618557    -8.154644724651     3.683485006757
H                    -7.217328546323    -4.813608192984     8.216538084977
H                    -7.265801268781    -6.326731127297     7.292666563871
H                    -5.751063364998    -5.810638796847     8.097138179900
H                    -6.007273687477    -7.301406989152     5.670098034658
H                    -7.224559144353    -6.620698069128     3.071173098480
