
  -OEChem-12102412493D

 17 17  0     0  0  0  0  0  0999 V2000
   -1.3083   -1.1682   -1.1072 C   0  0  0  0  0  0  0  0  0  0  0  0
   -1.8058   -2.4667   -1.4368 C   0  0  0  0  0  0  0  0  0  0  0  0
   -0.1690   -1.0178   -0.3677 C   0  0  0  0  0  0  0  0  0  0  0  0
   -1.1114   -3.5629   -0.9921 C   0  0  0  0  0  0  0  0  0  0  0  0
    0.5909   -2.1674    0.1182 C   0  0  0  0  0  0  0  0  0  0  0  0
   -1.4943   -4.9877   -1.2477 C   0  0  0  0  0  0  0  0  0  0  0  0
   -2.7388   -5.2782   -2.0565 C   0  0  0  0  0  0  0  0  0  0  0  0
    0.0272   -3.3973   -0.2525 N   0  0  0  0  0  0  0  0  0  0  0  0
    1.6232   -2.1183    0.7863 O   0  0  0  0  0  0  0  0  0  0  0  0
   -0.7888   -5.8821   -0.7944 O   0  0  0  0  0  0  0  0  0  0  0  0
   -1.8487   -0.2903   -1.4528 H   0  0  0  0  0  0  0  0  0  0  0  0
   -2.7085   -2.5844   -2.0230 H   0  0  0  0  0  0  0  0  0  0  0  0
    0.2245   -0.0408   -0.1074 H   0  0  0  0  0  0  0  0  0  0  0  0
   -2.6626   -4.8413   -3.0574 H   0  0  0  0  0  0  0  0  0  0  0  0
   -3.6240   -4.8508   -1.5747 H   0  0  0  0  0  0  0  0  0  0  0  0
   -2.8582   -6.3586   -2.1409 H   0  0  0  0  0  0  0  0  0  0  0  0
    0.5075   -4.2427    0.0539 H   0  0  0  0  0  0  0  0  0  0  0  0
  1  2  1  0  0  0  0
  1  3  2  0  0  0  0
  1 11  1  0  0  0  0
  2  4  2  0  0  0  0
  2 12  1  0  0  0  0
  3  5  1  0  0  0  0
  3 13  1  0  0  0  0
  4  6  1  0  0  0  0
  4  8  1  0  0  0  0
  5  8  1  0  0  0  0
  5  9  2  0  0  0  0
  6  7  1  0  0  0  0
  6 10  2  0  0  0  0
  7 14  1  0  0  0  0
  7 15  1  0  0  0  0
  7 16  1  0  0  0  0
  8 17  1  0  0  0  0
M  END
$$$$
