18   
torsion grid (-165,)
C        1.2468771758   -0.8842211646    1.9295279650
C        0.7849708599   -1.6157712727    0.6760563868
C        3.2328472557    1.9274255096    0.3368144763
C        2.3033906739    1.0528086061    2.9429073025
C        2.0798023055    0.9294515988    0.4511151892
N        2.0154190979    0.2512243674    1.7535907263
O        0.9619320362   -1.3206827990    3.0462333284
H        1.6305862676   -1.9323317246    0.0570566247
H        0.2305561517   -2.4970194943    0.9977371363
H        0.1332454484   -0.9906558941    0.0570876510
H        4.1959305711    1.4463060397    0.5359122079
H        3.2573114408    2.3272428022   -0.6818908666
H        3.1208844584    2.7725227523    1.0204436984
H        3.3480867065    1.3732235475    2.9492810431
H        1.6603709722    1.9428135022    2.9874512077
H        2.1102415200    0.4383561961    3.8200131007
H        1.1331801356    1.4575916054    0.2531675521
H        2.1949795841    0.1762114790   -0.3295566921
18   
torsion grid (-150,)
C        1.2818859551   -0.8901854224    1.8941226995
C        0.8507933016   -1.6264848132    0.6316158984
C        3.2834830667    1.8534002656    0.2968613693
C        2.2177571036    1.0965281809    2.9435920638
C        2.0046134122    1.0287851692    0.4652266534
N        1.9455657674    0.3103841151    1.7413525981
O        1.0585100925   -1.3795682284    3.0031942231
H        1.6989581970   -1.8438309341   -0.0252956255
H        0.3958553434   -2.5659253383    0.9446264548
H        0.1176769568   -1.0516807154    0.0564011920
H        4.1716674580    1.2245084570    0.4178528188
H        3.3057344474    2.2888869095   -0.7072679310
H        3.3436556740    2.6751704492    1.0149189065
H        3.2806875891    1.3447952820    3.0181074992
H        1.6396094205    2.0303589303    2.9320525390
H        1.9273998847    0.5070544659    3.8112318801
H        1.1311555645    1.6940367786    0.3729121841
H        1.9446361790    0.3079104600   -0.3490605276
18   
torsion grid (-135,)
C        1.3053622776   -0.8628621770    1.8688193704
C        0.9252608288   -1.6077589085    0.5943821776
C        3.3068077060    1.7807487575    0.2502610646
C        2.1361896213    1.1547994065    2.9556056911
C        1.9386408619    1.1310933219    0.4809633069
N        1.8580315392    0.3925223089    1.7407594277
O        1.1323926273   -1.3913840356    2.9694797708
H        1.7758063736   -1.7238850310   -0.0846227266
H        0.5734114011   -2.5951496741    0.8923288353
H        0.1241526194   -1.0975719848    0.0496527723
H        4.1025953998    1.0289668359    0.2708796423
H        3.3214719841    2.2725839444   -0.7278980779
H        3.5324015893    2.5385849654    1.0053743260
H        3.2102894915    1.3302476079    3.0785535655
H        1.6259519082    2.1255136397    2.9152930684
H        1.7717367724    0.5880580726    3.8107045186
H        1.1601640747    1.9095599987    0.4681451630
H        1.7223044856    0.4549626027   -0.3441165760
18   
torsion grid (-120,)
C        1.2644506058   -0.8235002502    1.9102762470
C        0.9392530076   -1.5702784513    0.6216405475
C        3.2828103262    1.6808156690    0.2879295346
C        1.9883678422    1.2122258086    3.0360999935
C        1.8471825050    1.2139074133    0.5552121028
N        1.7073489952    0.4742266644    1.8072712512
O        1.1356747356   -1.3815785975    3.0028162961
H        1.7984887814   -1.6149478096   -0.0550866078
H        0.6561137017   -2.5849471244    0.9005579138
H        0.1066053365   -1.1077074612    0.0818460797
H        3.9669814094    0.8266560173    0.2505010883
H        3.3338938586    2.2070994889   -0.6711086657
H        3.6359435217    2.3657649586    1.0640226099
H        3.0642417817    1.2630402362    3.2409063510
H        1.6010718939    2.2333746985    2.9464044426
H        1.5017619231    0.7065644622    3.8689833327
H        1.1789810384    2.0865029537    0.5868169862
H        1.5080077501    0.5912821926   -0.2708775065
18   
torsion grid (-105,)
C        1.2931240438   -0.8089964543    1.9099373272
C        1.0225373357   -1.5449467330    0.6027713705
C        3.2716491365    1.5503128049    0.2573306241
C        1.9048528163    1.2408806693    3.0773403473
C        1.8019945303    1.2669267985    0.5922991743
N        1.6236502840    0.5238138344    1.8370605141
O        1.2090578835   -1.4008662905    2.9888088894
H        1.8751441953   -1.4963459978   -0.0818274961
H        0.8281541925   -2.5874681385    0.8534699843
H        0.1484849215   -1.1385916509    0.0833454421
H        3.8337754478    0.6161365326    0.1554448449
H        3.3461933359    2.1025340131   -0.6856734005
H        3.7506848285    2.1507822453    1.0362713162
H        2.9823968536    1.3194875703    3.2672116961
H        1.4854986940    2.2510499763    3.0175208772
H        1.4484607432    0.7018521079    3.9063482650
H        1.2570191662    2.2158271526    0.6814412613
H        1.3345964175    0.7199106641   -0.2256801833
18   
torsion grid (-90,)
C        1.3317068230   -0.7899015327    1.9039728498
C        1.1024098834   -1.5077457442    0.5792406839
C        3.2502144155    1.4164366098    0.2280618706
C        1.8212875514    1.2675898253    3.1126206936
C        1.7713694801    1.3146113895    0.6239287116
N        1.5444969855    0.5689905685    1.8605585506
O        1.2984038834   -1.4114771194    2.9683917416
H        1.9353242702   -1.3720293769   -0.1171391121
H        0.9929796322   -2.5694374436    0.7990848227
H        0.1910906240   -1.1529419455    0.0865183738
H        3.6826909047    0.4233480624    0.0694974354
H        3.3584806828    1.9897351672   -0.6990896625
H        3.8348016094    1.9184406586    1.0049336278
H        2.8987984649    1.3754799676    3.2916785656
H        1.3694170105    2.2642894804    3.0801541097
H        1.3934584277    0.6971987345    3.9357667591
H        1.3568026324    2.3199118295    0.7616625322
H        1.1987967865    0.8567588067   -0.1841102015
18   
torsion grid (-75,)
C        1.4346122584   -0.7911884734    1.9128036626
C        1.1861569254   -1.4941763874    0.5837700836
C        3.2407279109    1.3207419085    0.2460452224
C        1.7666651986    1.2674777306    3.1597721273
C        1.7676843656    1.3484452037    0.6770139192
N        1.4848837282    0.5872766642    1.8963100255
O        1.5246593753   -1.4357889303    2.9591077014
H        2.0113128555   -1.3513505193   -0.1199191683
H        1.0824676490   -2.5591055772    0.7908258570
H        0.2714839657   -1.1307678579    0.1046589260
H        3.5735462056    0.3004356662    0.0353998968
H        3.3820544584    1.9187262030   -0.6608600037
H        3.8905730982    1.7312771411    1.0251751945
H        2.8436057864    1.4079890613    3.3215669319
H        1.2797597061    2.2474905257    3.1559839888
H        1.3755303629    0.6673733436    3.9797830262
H        1.4506712450    2.3805682174    0.8553037298
H        1.1390963972    0.9720677049   -0.1344170367
18   
torsion grid (-60,)
C        0.8648960632   -0.3441853781    1.7986905705
C       -0.2444862458    0.1026067038    0.8562565886
C        2.6645778162    1.0253441387   -0.3833925210
C        3.0166007771    0.0227197678    2.8587474646
C        2.3244821333    1.5399230984    1.0204933482
N        1.9445162494    0.4943066192    1.9806686240
O        0.7512774704   -1.4087935497    2.4097143102
H       -0.1998442965   -0.4971633282   -0.0578234852
H       -1.1940690575   -0.1240634642    1.3454841061
H       -0.2218519522    1.1586956214    0.5836433706
H        1.7957818327    0.5775525804   -0.8709698023
H        3.0150911821    1.8512867677   -1.0120859881
H        3.4566104697    0.2703947347   -0.3417735779
H        3.8180530665   -0.4705894017    2.2921284501
H        3.4408517167    0.8727549150    3.4019820893
H        2.6049959409   -0.6952575131    3.5657012652
H        3.1920343841    2.0526883756    1.4430526806
H        1.5303673290    2.2917027423    0.9595139457
18   
torsion grid (-45,)
C        0.9233560488   -0.3954085331    1.7481161377
C       -0.2100529545    0.0498914351    0.8340759530
C        2.5433424833    1.0371419284   -0.4152161958
C        2.9805825406    0.0575634371    2.9322100048
C        2.3703161833    1.5253990864    1.0280193799
N        1.9391084436    0.5048721827    2.0023880505
O        0.8647185909   -1.4921754280    2.3061065523
H       -0.1885903090   -0.5360264980   -0.0891401023
H       -1.1447909413   -0.1895922487    1.3466152016
H       -0.2005180862    1.1125565573    0.5851889926
H        1.5952032174    0.7614980135   -0.8781600079
H        2.9892545054    1.8345584481   -1.0198449410
H        3.2087512028    0.1681470422   -0.4570759973
H        3.7843387489   -0.4863691191    2.4172051860
H        3.4078750776    0.9292610507    3.4361892125
H        2.5384195193   -0.6095967482    3.6700889251
H        3.3220165470    1.9169599715    1.3923528085
H        1.6682231903    2.3688252462    1.0461371188
18   
torsion grid (-30,)
C        0.9695954850   -0.4295046363    1.7358496818
C       -0.1390873572   -0.0321408531    0.7710949575
C        2.4007574840    1.1268677252   -0.4854240300
C        2.9382554460    0.1176529924    3.0273372579
C        2.4903156706    1.4708684392    1.0056764478
N        1.9880193381    0.4703842755    1.9692741806
O        0.8852830939   -1.4902612002    2.3588624346
H        0.0041910742   -0.5197755555   -0.1971496882
H       -1.0718093463   -0.4107166820    1.1937704710
H       -0.2226993994    1.0460822530    0.6194458764
H        1.3883480785    1.1869007890   -0.8823458076
H        3.0138493255    1.8417800830   -1.0446470821
H        2.7912334317    0.1227309752   -0.6823153514
H        3.7867323186   -0.4614012151    2.6379773051
H        3.3168977557    1.0353386331    3.4877354724
H        2.4314534635   -0.4842359709    3.7796175874
H        3.5441666070    1.6174857188    1.2529879704
H        1.9971159660    2.4369168669    1.1851712382
18   
torsion grid (-15,)
C        0.9687072079   -0.4634295817    1.7731267676
C       -0.0853599455   -0.1683152933    0.7145727636
C        2.2590108023    1.2552684917   -0.5020386164
C        2.8889920730    0.1676479959    3.0998278058
C        2.6136139665    1.3605471330    0.9819425588
N        2.0313885193    0.3990378205    1.9359874914
O        0.8115430409   -1.4275972854    2.5279206973
H        0.2154923751   -0.5432168352   -0.2667815940
H       -0.9859958021   -0.7033112075    1.0177777220
H       -0.3085846231    0.8972318960    0.6272590980
H        1.2396038404    1.5644414743   -0.7304390497
H        2.9328415658    1.9210911247   -1.0513592069
H        2.4126353045    0.2407157725   -0.8820831698
H        3.7547691913   -0.4582407338    2.8447074933
H        3.2508358241    1.1312198584    3.4737309131
H        2.3176961297   -0.3358668636    3.8773262218
H        3.6990141205    1.2324525760    1.0617651179
H        2.4015253858    2.3818182815    1.3310161444
18   
torsion grid (0,)
C        0.9397853949   -0.1014057941    1.8606859100
C        0.1622450773   -0.2305797513    0.5578806396
C        2.3399711149    1.5683404362   -0.4306334434
C        2.9576188703    0.2510180623    3.1349586396
C        3.0152481535    1.0857937059    0.8514054156
N        2.2559053474    0.3116157388    1.8505531200
O        0.3991347806   -0.4457803398    2.9161480378
H        0.7421972927   -0.7198440275   -0.2271527937
H       -0.7178476768   -0.8329488823    0.7840702521
H       -0.1752531558    0.7390747612    0.1852565762
H        1.4699615806    2.1978853300   -0.2277746559
H        3.0701262398    2.1810486690   -0.9696092128
H        2.0414098233    0.7567627109   -1.0948181566
H        4.0225512192    0.0788749255    2.9491787707
H        2.8458407368    1.1864547827    3.6994986845
H        2.5533488576   -0.5619222165    3.7351877900
H        3.9025716654    0.4976621628    0.5784021234
H        3.3909213191    1.9751914509    1.3749907749
18   
torsion grid (15,)
C        0.9536748070   -0.0692713879    1.8455283960
C        0.2351603760   -0.3018224908    0.5232818981
C        2.3143704163    1.6660971640   -0.3750843441
C        2.9575597840    0.3277162041    3.1386680811
C        3.0505589972    1.0002695868    0.7884252641
N        2.2751996366    0.3222172140    1.8433312289
O        0.3658680680   -0.3162907344    2.9026445133
H        0.8767458421   -0.7645771150   -0.2297528633
H       -0.6042090016   -0.9634979473    0.7399499347
H       -0.1658075212    0.6292909488    0.1153796321
H        1.5293829277    2.3414997811   -0.0215451669
H        3.0442217358    2.2662389235   -0.9285009935
H        1.8769033813    0.9576855400   -1.0777295498
H        4.0061550920    0.0487834032    2.9908607902
H        2.9203612777    1.3191827020    3.6098520810
H        2.4785237694   -0.3876875858    3.8043456590
H        3.7967375748    0.2985408887    0.3876589442
H        3.6177597216    1.7859131605    1.3001837031
18   
torsion grid (30,)
C        0.9558840619   -0.0162150923    1.8174074863
C        0.3132857654   -0.3858712906    0.4876624669
C        2.3326371172    1.7989586300   -0.2350727738
C        2.9129895963    0.4541299294    3.1558506394
C        3.0747826775    0.8580572938    0.7207938266
N        2.3047042316    0.2698421483    1.8356426530
O        0.2913517360   -0.0774422473    2.8542733034
H        1.0269332641   -0.7320101632   -0.2629642755
H       -0.4042722958   -1.1814645830    0.6976447109
H       -0.2463941598    0.4629053099    0.0849729821
H        1.7566413532    2.5485000863    0.3180538125
H        3.0719070262    2.3270945851   -0.8468438644
H        1.6590587752    1.2798816805   -0.9155002824
H        3.9590504825    0.1354809704    3.1146870711
H        2.8729100930    1.5025950482    3.4813181461
H        2.3772949310   -0.1500747756    3.8859282623
H        3.5556101510    0.0573095523    0.1408844341
H        3.8847845044    1.4240994552    1.1863435230
18   
torsion grid (45,)
C        0.9952500479   -0.1004197975    1.7796751578
C        0.3813524366   -0.5273785796    0.4533144368
C        2.3595634722    1.9011955896   -0.0875662291
C        2.9082813952    0.5440523816    3.1085184212
C        3.0642039517    0.7508375787    0.6415911723
N        2.3447448017    0.1914568954    1.8018531451
O        0.3106173952   -0.1145575045    2.8038063341
H        1.1061784182   -0.7261781360   -0.3381546189
H       -0.1954951144   -1.4347837464    0.6471909728
H       -0.3230320206    0.2365751811    0.1122384996
H        2.0791486979    2.6949500154    0.6131511134
H        3.0374341744    2.3314577940   -0.8329601822
H        1.4590050326    1.5743363511   -0.6085978999
H        3.9659495955    0.2658670502    3.1282945966
H        2.8181466602    1.6188881057    3.3176398082
H        2.3740647005    0.0012764923    3.8863760996
H        3.2872868771   -0.0515251248   -0.0733041418
H        4.0290206845    1.0983990497    1.0158978525
18   
torsion grid (60,)
C        0.9957000619   -0.1779821004    1.7686468712
C        0.3926154193   -0.5805945815    0.4297031468
C        2.4230295149    1.9720940187   -0.0243204710
C        2.8597769763    0.6445769525    3.0880260075
C        3.0327207289    0.7181483285    0.6138740234
N        2.3150265726    0.2225036101    1.7966598822
O        0.3151711757   -0.2664794340    2.7927069644
H        1.1150321739   -0.7553501495   -0.3688528646
H       -0.1872160014   -1.4905320402    0.5978044236
H       -0.3081870301    0.1948801094    0.1060769560
H        2.3262696496    2.7772374678    0.7114722049
H        3.0639725542    2.3301336498   -0.8375155770
H        1.4327690592    1.7730916466   -0.4401075272
H        3.9070891363    0.3348836551    3.1591279886
H        2.8039747101    1.7343020342    3.2149325862
H        2.2844168182    0.1765546006    3.8846254740
H        3.1105942697   -0.0795400426   -0.1325233782
H        4.0555531842    0.9303247350    0.9347446222
18   
torsion grid (75,)
C        0.8708827579   -0.2579659973    1.8287262688
C        0.3169420448   -0.7224418644    0.4873493743
C        2.4014487877    2.0818843870    0.1957588444
C        2.6874266142    0.6861490711    3.1288516789
C        2.8514467881    0.6853718852    0.6467536137
N        2.1731250239    0.1970282655    1.8499516271
O        0.1955609322   -0.3459661469    2.8555336562
H        0.9489477835   -1.4976030803    0.0423165853
H       -0.6774889475   -1.1306466458    0.6666634633
H        0.2364299053    0.0970959625   -0.2326858907
H        2.5885461010    2.8283946267    0.9739743976
H        2.9499320295    2.3863038927   -0.7023766969
H        1.3326967652    2.0997999417   -0.0362486974
H        3.7772718879    0.5921771450    3.1340470844
H        2.4202739692    1.7357601984    3.3092757271
H        2.2649622598    0.0877322908    3.9348541471
H        2.7007560541   -0.0319189402   -0.1641342175
H        3.9258577474    0.6898791938    0.8551486168
18   
torsion grid (90,)
C        1.0177135693   -0.4496299664    1.8796535282
C        0.3850715854   -0.9153924011    0.5736324939
C        2.4178626949    2.0550128836    0.1083285217
C        2.8320493540    0.7137270466    3.0257422611
C        2.8294256474    0.6413029816    0.5403208456
N        2.2227887406    0.2104504825    1.7985535963
O        0.4701244818   -0.6850754934    2.9590079801
H        1.0056697468   -1.6693851579    0.0781287999
H       -0.5786685754   -1.3606112039    0.8195110458
H        0.2291287258   -0.0931637245   -0.1309997146
H        2.6919276549    2.7969526645    0.8643767988
H        2.9168729410    2.3278960298   -0.8279062765
H        1.3364263737    2.1174999259   -0.0487917774
H        3.9032154446    0.4834325892    3.0279620588
H        2.7071351585    1.7995770769    3.1236522729
H        2.3524386167    0.2315381521    3.8759513845
H        2.5836667526   -0.0753464425   -0.2450159474
H        3.9173479946    0.5967921664    0.6658970070
18   
torsion grid (105,)
C        1.0776989002   -0.5962412364    1.9082862981
C        0.4455339800   -1.0890848146    0.6117615405
C        2.5588330340    2.0957656412    0.2434862634
C        2.8201361651    0.6747208298    3.0433291341
C        2.8122466815    0.6158950228    0.5567532377
N        2.2104496952    0.1776381359    1.8134449345
O        0.5814507763   -0.8937800092    2.9975734912
H        1.1145301503   -1.7628262261    0.0664001241
H       -0.4586538884   -1.6347145820    0.8804944433
H        0.1785236239   -0.2643559746   -0.0564401269
H        2.9753309249    2.7454649233    1.0188617668
H        3.0265025968    2.3675095378   -0.7089911529
H        1.4853178353    2.2991881144    0.1711882931
H        3.9109440880    0.6270459495    2.9549133623
H        2.5305167185    1.7121478481    3.2511378121
H        2.4911937252    0.0530085880    3.8748021548
H        2.4402774750   -0.0041421219   -0.2580792418
H        3.8933478517    0.4338700656    0.6156073184
18   
torsion grid (120,)
C        1.0760065900   -0.6285572952    1.9087344448
C        0.4518971626   -1.1785844918    0.6312240799
C        2.6800296622    2.1527628538    0.2736050352
C        2.7641176685    0.7466810242    3.0024059001
C        2.7450021628    0.6410335757    0.5199228764
N        2.1373910039    0.2371506753    1.7855373970
O        0.6282920153   -0.9555587106    3.0107028377
H        1.1577650731   -1.7978715502    0.0681845830
H       -0.3965861379   -1.7948869347    0.9274603255
H        0.0978676605   -0.3817281512   -0.0304246328
H        3.2227685902    2.7110343796    1.0416829288
H        3.1300474887    2.3940799832   -0.6952196609
H        1.6418355859    2.5008433041    0.2689785089
H        3.8537966713    0.7323296928    2.8868866485
H        2.4490614890    1.7738926558    3.2205347451
H        2.4751008373    0.1115638487    3.8385722357
H        2.2533160797    0.1180662624   -0.2984934408
H        3.7952828404    0.3154813082    0.5151226840
18   
torsion grid (135,)
C        1.0207360544   -0.5999097005    1.8703254824
C        0.4224393672   -1.2045948437    0.6054804928
C        2.7672914668    2.2085998551    0.2351420094
C        2.6568979617    0.8649378020    2.9284869593
C        2.6356411535    0.6975569519    0.4515252848
N        2.0049641038    0.3530189546    1.7255404502
O        0.6104705868   -0.9518673513    2.9787057827
H        1.1674371772   -1.7614704012    0.0280565129
H       -0.3643530643   -1.8905213624    0.9184298423
H       -0.0116813463   -0.4416979878   -0.0485626341
H        3.4239507354    2.6723808987    0.9761125010
H        3.1927683268    2.4043034771   -0.7545625280
H        1.7882638268    2.6956317565    0.2925222888
H        3.7430230208    0.7270757465    2.8543502078
H        2.4496275636    1.9308978814    3.0714357552
H        2.2783418122    0.3145782137    3.7881899960
H        2.0524001546    0.2714743978   -0.3626647100
H        3.6339112717    0.2354829810    0.4059025310
18   
torsion grid (150,)
C        0.9522467789   -0.6053199545    1.9060020176
C        0.3793927872   -1.2528001460    0.6512051225
C        2.8626997781    2.1873313216    0.2823382108
C        2.5375174197    0.9295148041    2.9331632836
C        2.5058102062    0.7085678252    0.4546726788
N        1.8661672691    0.4156428253    1.7404156022
O        0.5798521710   -0.9779866174    3.0204140407
H        1.1543193607   -1.7556549905    0.0635393694
H       -0.3536322692   -1.9915105728    0.9744283436
H       -0.1144528719   -0.5222793211    0.0026481599
H        3.6301729114    2.5127710864    0.9891508660
H        3.2515580525    2.3521033857   -0.7276417622
H        1.9794037345    2.8202457781    0.4173711374
H        3.6089696970    0.6893731008    2.9054925337
H        2.4248275228    2.0150369555    3.0102423733
H        2.0887478580    0.4613033860    3.8072183584
H        1.8324034020    0.4157679898   -0.3497267941
H        3.4195868478    0.1021564926    0.3480043689
18   
torsion grid (165,)
C        1.0428444037   -0.6686875202    1.9578500470
C        0.4762467343   -1.3469983812    0.7174779378
C        2.9451075896    2.1754042363    0.3211092814
C        2.5269424346    0.9846038077    2.9353691565
C        2.4134136402    0.7467786364    0.4451956591
N        1.8355853066    0.4472116808    1.7633109238
O        0.7680613008   -1.0941725898    3.0811869789
H        1.2679953934   -1.7430165356    0.0732877629
H       -0.1527209990   -2.1708280010    1.0538829504
H       -0.1279749099   -0.6576423989    0.1190485668
H        3.8008434325    2.3590556377    0.9752540890
H        3.2733522809    2.3453919893   -0.7091918913
H        2.1670190487    2.9094727348    0.5546326370
H        3.5855956504    0.6898881579    2.9416065547
H        2.4658599219    2.0754912449    2.9538010426
H        2.0472867879    0.5824122137    3.8254784393
H        1.6466405914    0.5943164968   -0.3155131305
H        3.2325221439    0.0435609249    0.2243568436
18   
torsion grid (180,)
C        1.1314924993   -0.7907519105    1.9070023973
C        0.6663629359   -1.5219999044    0.6554589357
C        3.1955285645    2.0059544476    0.3477608346
C        2.3495467008    1.0424242305    2.9157054307
C        2.1791711267    0.8659299449    0.3970869868
N        2.0211791755    0.2518678871    1.7284422008
O        0.7470872452   -1.1473078293    3.0222587309
H        1.5101890049   -1.9093176272    0.0757588527
H        0.0372037204   -2.3530924639    0.9730732076
H        0.0855678770   -0.8672734596   -0.0025443505
H        4.1938982139    1.6752099793    0.6504629624
H        3.2619467404    2.3691757596   -0.6826396894
H        2.9036332144    2.8491390804    0.9784569673
H        3.3884550556    1.3752932123    2.8781816112
H        1.6971303400    1.9207780777    3.0153578323
H        2.2057901327    0.4105098968    3.7899907327
H        1.2116110562    1.2561354329    0.0470795534
H        2.4846931877    0.0924518917   -0.3129108918
