27   
torsion grid (-165,)
C        4.4613978931    1.6608882489   -1.7028666073
C        2.9812250515    1.4403434863   -1.9351494686
O        2.2844085556    2.4997008455   -1.5172747681
C        0.8593457351    2.3306721479   -1.1875841090
C        0.7015839876    1.3104298668   -0.0333493640
O        1.9519848971    1.1247010950    0.6911718787
C        2.3963054905    1.9888958140    1.6481947878
C        1.3933848648    2.7117772966    2.4896557135
O        3.6143878255    2.0398154890    1.8200075562
C        0.3219827651    3.7422020023   -0.9191807233
O       -1.0563245974    3.7052381531   -0.7147522608
P       -1.6540333826    3.9017873703    0.9733491938
O       -3.0236318383    4.5223093115    0.7536621244
O       -0.5535530892    4.7985785911    1.5893430155
O       -1.6211626523    2.4508347542    1.5061138656
H        0.3488264499    1.9242041023   -2.0654716913
O        2.5068037000    0.4220267384   -2.4223240503
H        4.6283806712    1.5950841927   -0.6214501324
H        4.7593875999    2.6637504193   -2.0238144142
H        5.0436010321    0.8993417400   -2.2268694132
H        0.5457603130    0.3288923388   -0.4847165190
H       -0.1487348253    1.6041375216    0.6109669847
H        0.5264799182    2.0849371119    2.7192299852
H        0.9040264878    3.5901946429    2.0083137568
H        1.8993234407    3.0515165968    3.3976279011
H        0.5587256556    4.3448135499   -1.8177284994
H        0.8460461662    4.2026480666   -0.0722201146
27   
torsion grid (-150,)
C        4.7649281182    1.8419909963   -2.1338791520
C        3.2661722078    1.6138654171   -2.1014053879
O        2.6585987410    2.6190427706   -1.4746271263
C        1.2970734443    2.4184319362   -0.9399104633
C        1.3075142735    1.3006159302    0.1214944186
O        2.6307456871    1.1531797197    0.7093050300
C        3.0277822545    1.7685137448    1.8588141770
C        1.9953905027    2.2660502640    2.8189783635
O        4.2411346267    1.8142843884    2.0610253960
C        0.8285869998    3.7982330410   -0.4584378949
O       -0.5395818966    3.7787946334   -0.1919559528
P       -1.0594988598    3.6913089730    1.5265400073
O       -2.4310420242    4.3425498406    1.4722344895
O        0.0747912798    4.4704160978    2.2352722032
O       -1.0167117850    2.1721628139    1.8110506844
H        0.6477960769    2.1015868045   -1.7609655034
O        2.7188442647    0.6260878135   -2.5751963107
H        5.1425455726    1.6512397592   -1.1234591636
H        4.9961139194    2.8815419689   -2.3839112565
H        5.2359337230    1.1595277231   -2.8448623614
H        1.1522888537    0.3442377024   -0.3824053785
H        0.4995420589    1.4961402072    0.8517048372
H        1.1497949598    1.5791769718    2.9169234007
H        1.4826593868    3.2088093797    2.5080462915
H        2.4880926749    2.4327571891    3.7806986381
H        1.0431320436    4.5068994806   -1.2812631367
H        1.4085538846    4.1233336522    0.4157644653
27   
torsion grid (-135,)
C        4.3701685581    1.6043155821   -2.5839944089
C        2.9147054865    1.3785086195   -2.2073848078
O        2.4647683296    2.3921979188   -1.4801013551
C        1.1385693355    2.2966660168   -0.8202137600
C        1.2064160226    1.2993060406    0.3358754116
O        2.4785927497    1.3986398499    1.0344544552
C        2.6244185348    1.9285078059    2.2820485167
C        1.4125611223    2.2699763423    3.0868050794
O        3.7791020384    2.0668702161    2.6841074251
C        0.7283119145    3.7370441315   -0.4654323230
O       -0.6581954792    3.8481594610   -0.3596926087
P       -1.3884517131    3.6955000167    1.2674727787
O       -2.7397973890    4.3590520208    1.0652936266
O       -0.3522026900    4.4394141459    2.1459365557
O       -1.3845124300    2.1671413783    1.5022936026
H        0.4225215538    1.9151421982   -1.5523849725
O        2.2849336220    0.3806454136   -2.5378942918
H        4.9825425358    1.4566577503   -1.6882897516
H        4.5270571571    2.6317553805   -2.9246033431
H        4.6704059570    0.8932388515   -3.3564396582
H        1.2052778531    0.2864184416   -0.0769451418
H        0.3115271894    1.4722151922    0.9618860815
H        0.6359416542    1.5026351499    3.0332161377
H        0.8782776579    3.1851006111    2.7166989600
H        1.7345276016    2.4310032783    4.1191315576
H        1.0823201041    4.3726356805   -1.2974492067
H        1.2331638261    4.0723443633    0.4516305677
27   
torsion grid (-120,)
C        4.1767540649    1.6409643981   -2.6042230131
C        2.7604409324    1.4099624913   -2.0995488980
O        2.3667464295    2.4295573333   -1.3490378054
C        1.0826402991    2.3467893675   -0.6040064456
C        1.2302230655    1.3982649035    0.5777957956
O        2.5034923932    1.6189545893    1.2458505040
C        2.6128604601    1.9551708869    2.5604687240
C        1.3756140091    2.1593399700    3.3746359047
O        3.7551416803    2.0843305923    2.9995131715
C        0.6852847123    3.7956397675   -0.2600235857
O       -0.6968615048    3.9213282072   -0.1168453020
P       -1.3961606735    3.6951393241    1.5145358744
O       -2.7394487029    4.3904067952    1.3746242943
O       -0.3302798644    4.3726283615    2.4116356478
O       -1.4130783183    2.1568567631    1.6714665845
H        0.3259926635    1.9372764285   -1.2771989661
O        2.1139877840    0.4028221367   -2.3627580000
H        4.8681432210    1.5187229432   -1.7638546336
H        4.2917056488    2.6620309768   -2.9790866827
H        4.4165240335    0.9162818884   -3.3850813294
H        1.2699654297    0.3648175017    0.2185636251
H        0.3353818061    1.5522640405    1.2076731818
H        0.6453823226    1.3549945975    3.2536919995
H        0.8108225025    3.0742159812    3.0480538874
H        1.6765113180    2.2553177376    4.4211553122
H        1.0173865616    4.4177146176   -1.1104600637
H        1.2174754263    4.1354223811    0.6399247424
27   
torsion grid (-105,)
C        4.0820723989    1.6824598116   -2.6791992641
C        2.6893733883    1.4435442454   -2.1148968739
O        2.3082996118    2.4761468553   -1.3757824296
C        1.0490657672    2.3945815153   -0.5870980859
C        1.2491928921    1.5005871649    0.6228428872
O        2.5066344002    1.8323338709    1.2749918484
C        2.6145935898    1.9653163258    2.6234530033
C        1.3679841274    2.0344469464    3.4492248171
O        3.7517234725    2.0720655591    3.0811743017
C        0.6378964116    3.8463624021   -0.2670877247
O       -0.7396315265    3.9555970563   -0.0728185316
P       -1.3862964879    3.6903485199    1.5753717864
O       -2.7139645550    4.4257409954    1.5086892743
O       -0.2703749257    4.3035593556    2.4577688354
O       -1.4403446906    2.1485573012    1.6801139796
H        0.2793477960    1.9487411051   -1.2207817334
O        2.0501442276    0.4201956764   -2.3282177629
H        4.8076806242    1.5926569260   -1.8639082935
H        4.1663520324    2.6948554907   -3.0845211168
H        4.3032859724    0.9410921897   -3.4497981903
H        1.3301670130    0.4494029072    0.3241144879
H        0.3490241286    1.6412260163    1.2476790195
H        0.6807952030    1.2053502142    3.2608949598
H        0.7759549177    2.9477176840    3.1734481525
H        1.6613319883    2.0584708731    4.5019179315
H        0.9247826430    4.4514248961   -1.1456594008
H        1.1984973787    4.2118636006    0.6047465230
27   
torsion grid (-90,)
C        3.8319351954    1.2219587579   -2.6799324636
C        2.4333044248    1.2760807547   -2.0827290290
O        2.2279928805    2.4468025222   -1.4953099927
C        0.9894080726    2.6652064298   -0.6993179354
C        1.0804612571    1.9446226852    0.6281301819
O        2.3708333174    2.2245765191    1.2388583764
C        2.5050277758    2.2893885605    2.5871891545
C        1.2777198503    2.5400036426    3.4116990168
O        3.6438115638    2.2180523035    3.0467874087
C        0.8086540831    4.1934583291   -0.5771665938
O       -0.5257642822    4.5354303333   -0.3570326247
P       -1.1420877219    4.5492059669    1.3277347768
O       -2.2921936115    5.5373138335    1.2280047976
O        0.1126983187    4.9831035541    2.1249362523
O       -1.5073111479    3.0665591689    1.5696768690
H        0.1467561546    2.2553207220   -1.2600085775
O        1.6443222861    0.3409366741   -2.1479693463
H        4.5566179579    1.1405832444   -1.8629205487
H        4.0545374784    2.1429276036   -3.2264238384
H        3.9222172566    0.3546562775   -3.3372101750
H        1.0071733389    0.8555552158    0.5228639751
H        0.2134335868    2.3020690672    1.2116169305
H        0.4921748082    1.7970361638    3.2490054948
H        0.8225349449    3.5101292506    3.0862891025
H        1.5711754427    2.5596090701    4.4644472853
H        1.1339987154    4.6239757626   -1.5413003956
H        1.4609693620    4.5786053149    0.2188081747
27   
torsion grid (-75,)
C        3.9004061090    1.1890172700   -2.6029112160
C        2.4995848158    1.2263454194   -2.0093115686
O        2.2549199474    2.4167739534   -1.4792423215
C        1.0080114342    2.6309458462   -0.6956100288
C        1.1091634646    1.9851577646    0.6640283390
O        2.3689219841    2.3726478695    1.2801104731
C        2.5115307906    2.2686975169    2.6212717353
C        1.2683556254    2.3975150908    3.4565386679
O        3.6490504455    2.1802252296    3.0795936791
C        0.7854473707    4.1586760922   -0.6254586701
O       -0.5504346903    4.4716148836   -0.3784262845
P       -1.1419893244    4.4968324405    1.3220044313
O       -2.2604634655    5.5231679983    1.2435796792
O        0.1368877619    4.8801896411    2.1046403706
O       -1.5519702590    3.0250273448    1.5555719355
H        0.1786294881    2.1747556035   -1.2398716216
O        1.7413854315    0.2641873100   -2.0301691332
H        4.6263811250    1.1754240979   -1.7831317855
H        4.0920522435    2.0872187456   -3.1970272756
H        4.0213210167    0.2922222554   -3.2140706705
H        1.0661169951    0.8889762317    0.6570892321
H        0.2223262259    2.3443030240    1.2150067469
H        0.5282667618    1.6216512999    3.2407679716
H        0.7745702041    3.3584743756    3.1773257506
H        1.5535112924    2.3640878503    4.5112259386
H        1.0717176854    4.5621682398   -1.6137466360
H        1.4497906604    4.5853735269    0.1386620551
27   
torsion grid (-60,)
C        4.8280240010    1.8556709102   -2.4238544671
C        3.3748328584    1.4021345786   -2.4723090043
O        2.6068633408    2.2370476623   -1.7889686663
C        1.1491232182    1.9455978245   -1.6328183648
C        0.9080879505    1.1372895114   -0.3847407459
O        1.2518698782    1.9729803697    0.7360559188
C        0.9711838819    1.5075214522    1.9664406149
C        0.6895577139    2.6681826923    2.8829681747
O        0.9697631315    0.3190029094    2.2690144708
C        0.4262595869    3.3104660252   -1.6068918028
O       -0.9510524736    3.1252471614   -1.5672435641
P       -1.8161942053    3.3207453156    0.0242148814
O       -3.1857451098    3.7831484776   -0.4539705426
O       -0.9374067814    4.3502940096    0.7660142277
O       -1.7345493640    1.9000361722    0.6224553807
H        0.8379484925    1.3623274218   -2.5013815543
O        3.0185342208    0.3890004910   -3.0643833283
H        5.2324176232    1.6419987933   -1.4284708813
H        4.9010008972    2.9349849165   -2.5832836092
H        5.4100175558    1.3156150534   -3.1736020388
H        1.4276272275    0.1740976157   -0.3355126229
H       -0.1814361698    0.9815615140   -0.3019147123
H       -0.0824108138    3.2828669258    2.3811970876
H        1.5874206470    3.2931343468    2.9806567846
H        0.3786917858    2.3016786224    3.8650927855
H        0.7160152477    3.8390558886   -2.5375800833
H        0.7798817056    3.8962992772   -0.7487899617
27   
torsion grid (-45,)
C        5.2680843659    1.7567942105   -2.2048709952
C        3.8974830041    1.0970857756   -2.2805478131
O        2.9920204013    1.8378470668   -1.6592221020
C        1.5867562324    1.3434742788   -1.5373106128
C        1.4093594457    0.5713433295   -0.2577099634
O        1.5461350110    1.5122668178    0.8215006424
C        1.5499089761    1.0811910261    2.0825235552
C        1.0844339853    2.2069803189    2.9743695895
O        1.8686006272   -0.0500374947    2.4412381898
C        0.6693267218    2.5880488956   -1.5980002843
O       -0.6653357337    2.2056177478   -1.5712868936
P       -1.5966889192    2.3153321385    0.0024439063
O       -2.9950856934    2.6130640703   -0.5226166698
O       -0.8667288631    3.4486083573    0.7524757677
O       -1.3722627492    0.9143022628    0.6097888744
H        1.3971666296    0.6830812701   -2.3851771185
O        3.7126452447    0.0208588263   -2.8385286907
H        5.6689936956    1.6227465047   -1.1942331691
H        5.1907502979    2.8318952449   -2.3883794045
H        5.9439824687    1.2905703183   -2.9248419315
H        2.0504842169   -0.3032976117   -0.1094286786
H        0.3487874377    0.2622872287   -0.2105417490
H        0.1844701349    2.6342932393    2.4953355748
H        1.8431811377    3.0000119574    2.9998367727
H        0.9053647707    1.8331302236    3.9862505207
H        0.9033120546    3.1054278109   -2.5507833759
H        0.9144381116    3.2611853620   -0.7659432275
27   
torsion grid (-30,)
C        5.6037132156    1.3994186430   -1.8895659965
C        4.1885678197    0.9316878646   -2.2016607074
O        3.2990542916    1.7523044480   -1.6620308886
C        1.8417109513    1.4333760136   -1.7597275405
C        1.4063477769    0.6310403882   -0.5616124236
O        1.4774921275    1.5081470906    0.5756081668
C        1.5743765887    1.0654657244    1.8173307752
C        1.1710057907    2.1925892964    2.7461224249
O        1.9144515022   -0.0678061266    2.1572015127
C        1.0943428439    2.7848201239   -1.8656623023
O       -0.2642478706    2.5756476453   -2.0516170497
P       -1.3961595989    2.6770344976   -0.6067032799
O       -2.6557017906    3.2115958083   -1.2778833754
O       -0.6474638516    3.6292180371    0.3474167807
O       -1.4384286252    1.2056216284   -0.1419716175
H        1.6942772192    0.8402858505   -2.6637180333
O        3.9563272295   -0.0811770419   -2.8525682393
H        5.8413217978    1.1318346497   -0.8541020441
H        5.6815811681    2.4864661475   -1.9760993042
H        6.3127967651    0.9069622837   -2.5584347844
H        1.9442887284   -0.3031775232   -0.3747936906
H        0.3212923583    0.4384441072   -0.6697201108
H        0.3285678034    2.7190477993    2.2692253744
H        1.9994245957    2.9068079109    2.8379697681
H        0.9292332844    1.7922488928    3.7347275674
H        1.5272103449    3.3129776005   -2.7399214902
H        1.2939219658    3.3799223390   -0.9642680210
27   
torsion grid (-15,)
C        5.2527387320    1.6008266112   -1.4722365497
C        3.8648641794    1.1329685694   -1.8893970606
O        2.9397630888    1.9788032514   -1.4563918247
C        1.4895615550    1.6524020063   -1.6427697814
C        1.0081917258    0.8836792918   -0.4349072158
O        1.2662626048    1.7015868557    0.7499068012
C        1.7666927472    1.1646718052    1.8465256375
C        1.7718566428    2.1973158656    2.9622776965
O        2.1772442150    0.0138410494    1.9876015445
C        0.7449778254    2.9737683635   -1.9157031667
O       -0.5112979659    2.7047347874   -2.4475376876
P       -1.9210654616    2.6729172334   -1.2909549891
O       -3.0771423373    2.9884411701   -2.2328919177
O       -1.5137493377    3.7391078062   -0.2629326727
O       -1.8593353075    1.2165324069   -0.7629433014
H        1.4023205103    1.0084934531   -2.5192737143
O        3.6800173526    0.0994242326   -2.5209924143
H        5.4106741106    1.3269957284   -0.4231527308
H        5.3388374505    2.6878505189   -1.5502513184
H        6.0098739484    1.1080960916   -2.0861514838
H        1.5305243768   -0.0687082021   -0.3221476507
H       -0.1033234021    0.7853825006   -0.5101545098
H        0.7481662727    2.5441961984    3.1302189376
H        2.3591023828    3.0695802464    2.6578936718
H        2.1868026590    1.7612941114    3.8735889383
H        1.3585213113    3.5314537968   -2.6514366474
H        0.6728430174    3.5686205818   -0.9943507031
27   
torsion grid (0,)
C        4.8691639801    1.3511201567   -1.2120507462
C        3.4508813196    1.4100754950   -1.7579805463
O        2.8029819769    2.4573011278   -1.2599494128
C        1.3231955936    2.5674926783   -1.4558140736
C        0.6513671610    1.8139152153   -0.3277747966
O        1.1518017579    2.3582192741    0.9378511316
C        1.7864483053    1.5892465851    1.8015064273
C        2.1035922512    2.3834574347    3.0588299234
O        2.1023342768    0.4090701137    1.6542015168
C        0.9631982289    4.0609630868   -1.5509508230
O       -0.3159284317    4.1980941685   -2.0804511679
P       -1.6870476119    4.4333696594   -0.9020096131
O       -2.7226533053    5.1086316377   -1.7936604592
O       -1.0207109411    5.2729662156    0.1976970633
O       -2.0031196488    2.9717763149   -0.4908487899
H        1.0709107278    2.0813806451   -2.3995033529
O        3.0030608114    0.5693093177   -2.5278259796
H        4.8263264431    0.8789852903   -0.2241180235
H        5.2872969530    2.3537155166   -1.0895774860
H        5.4977928074    0.7463708888   -1.8697580510
H        0.9032237583    0.7524199541   -0.3693040100
H       -0.4419304851    2.0439602321   -0.3514355512
H        1.1759141289    2.7750724489    3.4858136986
H        2.7243776093    3.2465688822    2.7990084962
H        2.6213142410    1.7486229844    3.7810615720
H        1.7093468284    4.5214742503   -2.2291570108
H        1.0439479553    4.5397180869   -0.5647720878
27   
torsion grid (15,)
C        5.2229473010    2.1945493726   -0.6868226030
C        3.8080129438    1.9583255330   -1.1857822767
O        2.9784763376    2.8742804115   -0.6923586431
C        1.5041543254    2.6572951910   -0.8032969113
C        1.0741049259    1.7947763468    0.3664126843
O        1.5230925318    2.4384218498    1.6062032459
C        2.5570386362    1.9644242573    2.2744671531
C        2.8289054412    2.8302259192    3.4942043677
O        3.2474771268    0.9874253380    1.9843329133
C        0.8227079740    4.0350026763   -0.8822200805
O       -0.4830732075    3.8844315357   -1.3380129293
P       -1.8061202510    3.8507168094   -0.0848108364
O       -3.0107601839    4.2587207015   -0.9252626301
O       -1.2814470570    4.8470197285    0.9594621519
O       -1.7722634518    2.3681666052    0.3694681104
H        1.3101131622    2.1121924992   -1.7284862637
O        3.5087259624    1.0237147271   -1.9179370747
H        5.2879162264    1.7563430221    0.3152228706
H        5.4411276019    3.2629955323   -0.6068731780
H        5.9404842116    1.7005163337   -1.3462677896
H        1.5364544536    0.8072767091    0.3070469103
H       -0.0413628325    1.7957538584    0.4157318287
H        1.8908913154    3.1578305308    3.9477999889
H        3.3678567660    3.7273891310    3.1696228638
H        3.4446731884    2.2814420620    4.2105425757
H        1.4130695538    4.6358709500   -1.6027201255
H        0.8517426068    4.5357476082    0.0960927282
27   
torsion grid (30,)
C        5.2918542465    2.2146605935   -0.5619712185
C        3.9195616436    1.8986155406   -1.1292835283
O        3.0165943289    2.7678973510   -0.6806439233
C        1.5685261257    2.4966114916   -0.9102225292
C        1.0517383619    1.6092140611    0.2040737374
O        1.3588992247    2.2189896746    1.5032076218
C        2.4689438253    1.9060176658    2.1472618799
C        2.6360435140    2.8015256061    3.3637758702
O        3.2835331472    1.0341542704    1.8471670124
C        0.8506207012    3.8535106353   -1.0366177338
O       -0.4001449262    3.6712337742   -1.6165246029
P       -1.8367240094    3.6064620366   -0.4972157369
O       -2.9652857975    3.9725797349   -1.4545699134
O       -1.4457988777    4.6255063598    0.5831477211
O       -1.8022287514    2.1288629378   -0.0277877814
H        1.4699776882    1.9563704701   -1.8532986780
O        3.7086820336    0.9527019102   -1.8771990030
H        5.3197950418    1.8100245560    0.4552633842
H        5.4553312863    3.2945124972   -0.5049969733
H        6.0658568761    1.7378843298   -1.1680206466
H        1.4973902804    0.6119854306    0.1794067599
H       -0.0633194931    1.6046754043    0.1482938611
H        1.6655955766    3.0412187121    3.8035336487
H        3.0896854220    3.7431016739    3.0344902568
H        3.2950066962    2.3233788927    4.0924925190
H        1.4882460549    4.4834023009   -1.6888119840
H        0.7707715027    4.3405432162   -0.0538914166
27   
torsion grid (45,)
C        5.4114814730    2.3680452368   -0.3632526100
C        4.0900086289    1.9350941494   -0.9714341646
O        3.1122148145    2.7581189599   -0.5992166803
C        1.7028222386    2.3985610159   -0.9116225215
C        1.1434329673    1.4728410094    0.1479375202
O        1.2632047658    2.0571034499    1.4881011922
C        2.3965344315    1.9916911560    2.1672684957
C        2.3478808497    2.9464429004    3.3477588915
O        3.3645653256    1.2713991803    1.9307779867
C        0.9223163613    3.7178241016   -1.0789904127
O       -0.2708171362    3.4840605273   -1.7522861996
P       -1.7816349654    3.3340309668   -0.7445137497
O       -2.8526077655    3.6759534280   -1.7743176630
O       -1.5146120187    4.3441298237    0.3813546855
O       -1.7162631736    1.8486960739   -0.3050032663
H        1.6931605362    1.8620851387   -1.8623475287
O        3.9747219698    0.9501240505   -1.6893570066
H        5.4091378193    2.0371447416    0.6802591417
H        5.5104180299    3.4572916620   -0.3753016018
H        6.2403658189    1.8993953159   -0.8989228417
H        1.5995401813    0.4792183338    0.1606021464
H        0.0404668951    1.4204687716   -0.0177178440
H        1.3475538044    2.9646198482    3.7862287213
H        2.5555323940    3.9560537172    2.9767594706
H        3.1015594496    2.6689126890    4.0885177928
H        1.5742500125    4.3878606554   -1.6743066536
H        0.7448060719    4.1861696915   -0.0996017911
27   
torsion grid (60,)
C        5.6093842853    2.2680909171   -0.0267699196
C        4.5897429313    1.5964812498   -0.9265596304
O        3.4793855363    2.3209083723   -0.9824016213
C        2.2432888657    1.7408968500   -1.5586222666
C        1.6794546095    0.6311202979   -0.6827527899
O        1.0424183449    1.1112151708    0.5157664820
C        1.6629325026    1.7152846518    1.5202749784
C        0.6226367932    2.4745290739    2.3151480560
O        2.8686446732    1.6629133904    1.7712316013
C        1.3044094670    2.9454235041   -1.7748929808
O        0.1670079178    2.5956499568   -2.4815949447
P       -1.3520847035    2.2385276733   -1.5327220107
O       -2.4260718443    2.7419111329   -2.4913602074
O       -1.1299089769    3.0754191214   -0.2507980291
O       -1.2490426131    0.7124997607   -1.3550763398
H        2.5058688737    1.2902150714   -2.5204947981
O        4.7869299722    0.5255548933   -1.4920941154
H        5.2435999685    2.1661233779    0.9999084231
H        5.6790792496    3.3369379663   -0.2502505917
H        6.5842173710    1.7872740024   -0.1363866323
H        2.4402345380   -0.1185860591   -0.4431930439
H        0.8183065896    0.2090104794   -1.2207860116
H        0.0439749008    1.7638891210    2.9186041335
H       -0.0790838327    2.9239453635    1.5871539176
H        1.1087251115    3.1990153835    2.9755290763
H        1.8984018221    3.6884578723   -2.3439930329
H        1.0531316073    3.3875387437   -0.7995776637
27   
torsion grid (75,)
C        5.7250801932    2.0695084743   -0.2855645468
C        4.5550873703    1.4984781241   -1.0649515026
O        3.5300499105    2.3377290225   -1.0277276535
C        2.1855030477    1.8973892554   -1.4651425508
C        1.5968861091    0.8120564038   -0.5765585425
O        1.1124735876    1.2439469410    0.7135934195
C        1.8102725270    1.9375966317    1.6112402068
C        0.8344406251    2.7065163483    2.4692974188
O        3.0361763857    1.9458062328    1.7264395923
C        1.3574340611    3.1948249198   -1.5669339685
O        0.1523311020    2.9922448254   -2.2182921574
P       -1.3298838750    2.7099897217   -1.2016102179
O       -2.4148189518    3.3291357132   -2.0753549437
O       -0.9721304149    3.4768980685    0.0943902343
O       -1.3351219771    1.1751800188   -1.0796946684
H        2.2940450259    1.4536721621   -2.4598893584
O        4.5817188323    0.4053506132   -1.6224634628
H        5.4402633041    2.0636090465    0.7711961538
H        5.9092626678    3.1092540766   -0.5730336686
H        6.6188499681    1.4626356286   -0.4476514042
H        2.2807687602   -0.0347157401   -0.4602507740
H        0.6495328209    0.5160904158   -1.0542488233
H        0.2418405346    2.0012587765    3.0650005347
H        0.1240880034    3.2013793681    1.7739454543
H        1.3701517479    3.3939127314    3.1307688632
H        1.9865161778    3.9041190630   -2.1397962680
H        1.2073431860    3.6141298876   -0.5613113416
27   
torsion grid (90,)
C        5.8961512670    2.0176334003   -0.3282186917
C        4.6922226676    1.4406221113   -1.0507527026
O        3.6923263772    2.3082409424   -1.0280796419
C        2.3219528671    1.8933402893   -1.4047239011
C        1.7307669304    0.8215309139   -0.5045110003
O        1.3139947721    1.2060857464    0.8297349448
C        1.9510699566    2.0519837861    1.6461255079
C        0.9250297648    2.7685778390    2.4851721661
O        3.1691477716    2.2123215438    1.7057617282
C        1.5180945408    3.2066737122   -1.5025144944
O        0.3137630211    3.0272723137   -2.1647471547
P       -1.1755911448    2.7498165183   -1.1668884403
O       -2.2518287204    3.3628603944   -2.0542805488
O       -0.8316904243    3.5218520323    0.1303643492
O       -1.1828402167    1.2158604432   -1.0311751998
H        2.3824781879    1.4393928689   -2.3993616062
O        4.6778874089    0.3214379179   -1.5549662458
H        5.6315843948    2.0939941435    0.7310606692
H        6.1119705079    3.0286406243   -0.6875080523
H        6.7648979754    1.3694563099   -0.4642007164
H        2.3738153887   -0.0617624122   -0.4436807096
H        0.7518917365    0.5795893300   -0.9540808520
H        0.3461236732    2.0372677724    3.0618564280
H        0.2102572676    3.2311958389    1.7671271328
H        1.4106423868    3.4840314396    3.1555512624
H        2.1614653009    3.9069871631   -2.0691610677
H        1.3678276476    3.6276060939   -0.4981037159
27   
torsion grid (105,)
C        5.8771482546    2.0338254002   -0.3930866307
C        4.6533789060    1.4445116846   -1.0726341911
O        3.6531908763    2.3093245286   -1.0265667056
C        2.2703885472    1.8943599712   -1.3544359473
C        1.7100548153    0.8054787973   -0.4578402676
O        1.3925326350    1.1103162222    0.9294775901
C        1.9185090729    2.0892976292    1.6841091696
C        0.8302587797    2.6954470978    2.5260313869
O        3.0998698683    2.4267915882    1.6879710653
C        1.4560208672    3.2036484035   -1.4226620628
O        0.2505894933    3.0227365180   -2.0859230798
P       -1.2300704965    2.7093305862   -1.0943154075
O       -2.3189161495    3.2999871424   -1.9800857866
O       -0.9050377313    3.4817613265    0.2080808608
O       -1.2045614725    1.1752701248   -0.9567062203
H        2.2949011615    1.4505730700   -2.3555140730
O        4.6288200111    0.3199275558   -1.5646143779
H        5.6397537824    2.1444677131    0.6696811651
H        6.0900054384    3.0327113431   -0.7865551869
H        6.7391765159    1.3771951707   -0.5309285323
H        2.3339482072   -0.0926575823   -0.4753251872
H        0.7006505375    0.6026695202   -0.8626579694
H        0.2943074146    1.9077503804    3.0678061536
H        0.0973962419    3.1261707529    1.8007289749
H        1.2440673995    3.4333803238    3.2199971045
H        2.0892164926    3.9194545182   -1.9803110908
H        1.3038527763    3.6089514893   -0.4131083769
27   
torsion grid (120,)
C        5.8536720572    2.1660266774   -0.7439321298
C        4.5935408130    1.5368716060   -1.3137130380
O        3.5758649474    2.3710019190   -1.1787687301
C        2.1836614727    1.9190148543   -1.3972710282
C        1.7270823079    0.8167956860   -0.4604708595
O        1.6208345550    1.0662045162    0.9735529787
C        2.0190848987    2.1677088721    1.6488267052
C        0.9044308477    2.6578008382    2.5235971059
O        3.1342052439    2.6727113745    1.5623599740
C        1.3250964161    3.2010982249   -1.4150452912
O        0.0822840440    2.9666545957   -1.9904998297
P       -1.3185076326    2.6495795182   -0.8960009287
O       -2.4814847112    3.1598180319   -1.7346204014
O       -0.9418735171    3.4910421985    0.3496457781
O       -1.2282205081    1.1264746248   -0.6833158314
H        2.1408230981    1.4696209506   -2.3954820308
O        4.5614149287    0.4117431892   -1.8039181106
H        5.7011663976    2.2993582604    0.3317358642
H        6.0128636937    3.1590937718   -1.1758015129
H        6.7164257809    1.5242920333   -0.9361135644
H        2.3436249485   -0.0780890696   -0.5792915770
H        0.6738657746    0.6249238813   -0.7428688790
H        0.4432339372    1.8190435151    3.0559779575
H        0.1221147391    3.0464605842    1.8178492650
H        1.2617132388    3.4232855022    3.2195134468
H        1.8900560711    3.9320891564   -2.0237448238
H        1.2290477176    3.6161272575   -0.4036359186
27   
torsion grid (135,)
C        5.8821880135    2.0981573046   -0.6936672786
C        4.6277598262    1.5152589232   -1.3183913758
O        3.6231144558    2.3701102224   -1.1888407171
C        2.2255355277    1.9458149388   -1.4116554399
C        1.7782919664    0.8432773872   -0.4641204052
O        1.9513253842    1.0309279702    0.9744008767
C        2.2431964072    2.1961407974    1.6292888235
C        1.0604040204    2.7359061096    2.3630730134
O        3.3736398579    2.6720528597    1.6478151749
C        1.3947159196    3.2421400588   -1.4100412007
O        0.1217155025    3.0160842223   -1.9229153957
P       -1.2410599752    2.8583152467   -0.7553156919
O       -2.4254148000    3.2853694576   -1.6083643867
O       -0.8044242975    3.8342778411    0.3690143713
O       -1.1629898605    1.3755275958   -0.3467442493
H        2.1632426834    1.5053555356   -2.4130516343
O        4.5801101617    0.4074721194   -1.8441573644
H        5.6913101819    2.2105978973    0.3783265336
H        6.0793981247    3.0969125440   -1.0960019297
H        6.7348954499    1.4395685036   -0.8733747556
H        2.3428851963   -0.0635071047   -0.6938545938
H        0.6902466271    0.7295725866   -0.6183055346
H        0.5130977723    1.9171266321    2.8406449444
H        0.3326819360    3.1686832455    1.6128482672
H        1.3662089756    3.4960078804    3.0893919086
H        1.9423482054    3.9548007528   -2.0556128743
H        1.3554919339    3.6811562385   -0.4051776443
27   
torsion grid (150,)
C        4.7175571004    1.5102055104   -1.3396242808
C        3.2796374383    1.3274191944   -1.7794270728
O        2.5402983314    2.3567466358   -1.3679990183
C        1.0685503455    2.2537330919   -1.3711176224
C        0.6026881286    1.1988537084   -0.3527436981
O        1.4417214636    1.0404135338    0.8386546667
C        2.0749320577    2.0343314402    1.5302061870
C        1.1917032728    3.0071042210    2.2507515017
O        3.2939524319    1.9683039889    1.6704988238
C        0.5410559574    3.6892145125   -1.2417191013
O       -0.8468898933    3.7072587745   -1.3514752892
P       -1.7861412772    3.9167348380    0.1752294071
O       -3.0765529039    4.5356318523   -0.3374954411
O       -0.8374223514    4.8247734902    0.9946005901
O       -1.8638584914    2.4747744319    0.7192385128
H        0.7571429158    1.8729236027   -2.3491549350
O        2.8723828358    0.3574689066   -2.4083186469
H        4.7317734244    1.4387170009   -0.2464421923
H        5.0766294249    2.5085591536   -1.6086719725
H        5.3486488449    0.7410923747   -1.7906127712
H        0.7706755915    0.2478431215   -0.8625932960
H       -0.4417854979    1.4136027850   -0.0651170047
H        0.4630020457    2.4321617043    2.8331945247
H        0.5350951669    3.6531815079    1.6230033215
H        1.8046625784    3.6336643500    2.9053216764
H        0.9959377426    4.2562216653   -2.0777314256
H        0.8841786789    4.1591676147   -0.3134138867
27   
torsion grid (165,)
C        4.6650851515    1.5781502303   -1.3900979761
C        3.2221154918    1.3698014447   -1.7985838143
O        2.4776095738    2.4029692080   -1.4004956390
C        1.0133085824    2.2581882049   -1.3349446142
C        0.6295019143    1.2048998847   -0.2696042837
O        1.6389903691    1.0050040881    0.7702957723
C        2.1719645766    2.0015990087    1.5387601323
C        1.2158751446    2.9009851834    2.2595180947
O        3.3884813287    1.9919240430    1.7194325745
C        0.4498315054    3.6773931916   -1.1858611026
O       -0.9429845229    3.6460588702   -1.1768410596
P       -1.7569924713    3.8963494863    0.4135409419
O       -3.0995189198    4.4701804926   -0.0092307026
O       -0.7633021278    4.8496612235    1.1191562486
O       -1.7604160972    2.4719011709    1.0115062126
H        0.6689536882    1.8597152749   -2.2943022810
O        2.8122117034    0.3813786535   -2.3951923790
H        4.7021522084    1.5100474551   -0.2968248604
H        5.0028576840    2.5810238031   -1.6696365512
H        5.2992449338    0.8167668084   -1.8499014940
H        0.6889503036    0.2553932331   -0.8047677184
H       -0.3615064887    1.4484688432    0.1549522607
H        0.3682931759    2.3164805741    2.6306664420
H        0.6945443713    3.6736365503    1.6526440920
H        1.7531771727    3.3982832266    3.0723254340
H        0.8129050241    4.2460848421   -2.0646419750
H        0.8528915388    4.1742682345   -0.2965383722
27   
torsion grid (180,)
C        4.5091766830    1.6506329403   -1.6035951188
C        3.0347919505    1.4477907372   -1.8816590482
O        2.3336899585    2.4938332028   -1.4380952461
C        0.8898316879    2.3382324934   -1.1991617595
C        0.6479908577    1.2942297860   -0.0794061277
O        1.8300294777    1.0693504120    0.7474168304
C        2.3475595239    2.0135444122    1.5875129827
C        1.3952783217    2.8336680983    2.3999913044
O        3.5709703973    2.0337579384    1.7187814328
C        0.3428906730    3.7522950359   -0.9659721713
O       -1.0397288190    3.7136596850   -0.7958135278
P       -1.6731217247    3.9528128725    0.8755241243
O       -3.0459354585    4.5483491359    0.6098352177
O       -0.5963518421    4.8824304820    1.4833664768
O       -1.6334103284    2.5185475638    1.4512128291
H        0.4347230411    1.9408272428   -2.1112096352
O        2.5672412318    0.4537508251   -2.4232367289
H        4.6439860160    1.5761228610   -0.5182514631
H        4.8247693342    2.6535222195   -1.9077358779
H        5.0977890014    0.8888460194   -2.1199452373
H        0.5546079718    0.3354926533   -0.5924836661
H       -0.2467690190    1.5722616897    0.5087999376
H        0.5208318076    2.2458306358    2.6956645496
H        0.9094773110    3.6867254552    1.8772737747
H        1.9374678349    3.2245737043    3.2657848311
H        0.6006338505    4.3388844066   -1.8697127481
H        0.8442758486    4.2331375172   -0.1179306111
