25
0 1 C8H13N3O
C                     0.175451646423     4.640395442422    -4.820603307155
C                     0.105247415126     4.510678111060    -3.446257641394
C                    -1.168181240795     4.693472017196    -5.301970304069
C                    -2.017968216996     4.549267819387    -4.192877752632
C                    -3.458260729933     4.356091837385    -4.287095024438
C                    -1.614334605900     4.839418091754    -1.704721788307
C                    -5.575411398542     3.605221544127    -3.391995349827
C                    -3.546138199458     2.388446748550    -2.778694128880
N                    -1.204251462338     4.432042472806    -3.046315993861
N                    -1.563786005913     4.883939447979    -6.617062235392
N                    -4.118050131796     3.637894225723    -3.285579373834
O                    -4.091727693147     4.830197051855    -5.248792465944
H                     1.079188525007     4.703059946238    -5.413375876106
H                     0.900695072725     4.522309717198    -2.711649302493
H                    -1.608242897771     5.931736000784    -1.607568609586
H                    -2.620741637257     4.480443359457    -1.494144607498
H                    -0.922015421456     4.411068137178    -0.974986790508
H                    -5.917033489332     2.900162227832    -4.162996914748
H                    -5.947622826708     4.595971677058    -3.651258897809
H                    -5.989018857036     3.299977253841    -2.425610292544
H                    -3.854515139455     2.227887969205    -1.739515517998
H                    -2.458637485828     2.410947718097    -2.821509687658
H                    -3.895552419384     1.531873323336    -3.374542482157
H                    -2.572779396179     4.835078177155    -6.737707971792
H                    -1.034555925148     4.367049494011    -7.308981906917
