
  -OEChem-12102412493D

 26 27  0     1  0  0  0  0  0999 V2000
   -7.8221   -5.5030    2.4985 C   0  0  0  0  0  0  0  0  0  0  0  0
   -6.4908   -5.5484    2.0022 C   0  0  0  0  0  0  0  0  0  0  0  0
   -8.6447   -4.4535    2.1990 C   0  0  0  0  0  0  0  0  0  0  0  0
   -6.0253   -4.5223    1.2208 C   0  0  0  0  0  0  0  0  0  0  0  0
   -8.1902   -3.3557    1.3768 C   0  0  0  0  0  0  0  0  0  0  0  0
   -4.5864   -6.3669   -0.9544 C   0  0  0  0  0  0  0  0  0  0  0  0
   -4.6431   -4.8344   -0.9007 C   0  0  0  0  0  0  0  0  0  0  0  0
   -3.6682   -6.6897    0.2255 C   0  0  0  0  0  0  0  0  0  0  0  0
   -4.6237   -4.5666    0.6227 C   0  0  2  0  0  0  0  0  0  0  0  0
   -6.4061   -2.2939    0.1351 C   0  0  0  0  0  0  0  0  0  0  0  0
   -6.8403   -3.4479    0.9332 N   0  0  0  0  0  0  0  0  0  0  0  0
   -8.8698   -2.3755    1.0476 O   0  0  0  0  0  0  0  0  0  0  0  0
   -3.8688   -5.6378    1.1924 O   0  0  0  0  0  0  0  0  0  0  0  0
   -8.1860   -6.3176    3.1210 H   0  0  0  0  0  0  0  0  0  0  0  0
   -5.8209   -6.3634    2.2397 H   0  0  0  0  0  0  0  0  0  0  0  0
   -9.6674   -4.3909    2.5551 H   0  0  0  0  0  0  0  0  0  0  0  0
   -5.5830   -6.7882   -0.7937 H   0  0  0  0  0  0  0  0  0  0  0  0
   -4.2001   -6.7461   -1.9040 H   0  0  0  0  0  0  0  0  0  0  0  0
   -3.7505   -4.3977   -1.3606 H   0  0  0  0  0  0  0  0  0  0  0  0
   -5.5225   -4.4236   -1.3990 H   0  0  0  0  0  0  0  0  0  0  0  0
   -3.8972   -7.6459    0.7061 H   0  0  0  0  0  0  0  0  0  0  0  0
   -2.6120   -6.6926   -0.0732 H   0  0  0  0  0  0  0  0  0  0  0  0
   -4.0898   -3.6422    0.8661 H   0  0  0  0  0  0  0  0  0  0  0  0
   -6.9074   -2.2965   -0.8369 H   0  0  0  0  0  0  0  0  0  0  0  0
   -5.3297   -2.3039   -0.0099 H   0  0  0  0  0  0  0  0  0  0  0  0
   -6.7010   -1.3805    0.6530 H   0  0  0  0  0  0  0  0  0  0  0  0
  1  2  1  0  0  0  0
  1  3  2  0  0  0  0
  1 14  1  0  0  0  0
  2  4  2  0  0  0  0
  2 15  1  0  0  0  0
  3  5  1  0  0  0  0
  3 16  1  0  0  0  0
  4  9  1  0  0  0  0
  4 11  1  0  0  0  0
  5 11  1  0  0  0  0
  5 12  2  0  0  0  0
  6  7  1  0  0  0  0
  6  8  1  0  0  0  0
  6 17  1  0  0  0  0
  6 18  1  0  0  0  0
  7  9  1  0  0  0  0
  7 19  1  0  0  0  0
  7 20  1  0  0  0  0
  8 13  1  0  0  0  0
  8 21  1  0  0  0  0
  8 22  1  0  0  0  0
  9 13  1  0  0  0  0
  9 23  1  0  0  0  0
 10 11  1  0  0  0  0
 10 24  1  0  0  0  0
 10 25  1  0  0  0  0
 10 26  1  0  0  0  0
M  END
$$$$
