23
0 1 C11H11N
C                     1.948858070165    -1.010346432892    -0.168219974163
C                     0.797782853129    -0.566992790948     0.491266955298
C                     3.021839055443    -1.504326866049     0.582544552446
C                     2.252745724711    -1.014752939152     6.334130289435
C                     0.719472240810    -0.616230597816     1.884885450868
C                     2.938895438435    -1.566324003317     1.974390267318
C                     2.759318612234    -0.832973137638     5.018166591576
C                     0.949825255533    -1.463682039814     6.207092155832
C                     1.785953019611    -1.123491304586     2.652198084411
C                     1.749982971315    -1.164984169051     4.119169801981
C                    -0.614336196320    -2.081723196290     4.360539868180
N                     0.643350173140    -1.552196183608     4.866286254984
H                     2.010349001806    -0.968932003073    -1.252524187560
H                    -0.036492864797    -0.166874699858    -0.079689055452
H                     3.921054268224    -1.854009812745     0.081371590268
H                     2.773085951135    -0.834839947835     7.266012177650
H                    -0.163469762014    -0.225341002732     2.381863932219
H                     3.763997155025    -1.975318232474     2.550838698297
H                     3.736613139266    -0.459135357400     4.740762330218
H                     0.221280663037    -1.740960192950     6.957384566409
H                    -1.349845671093    -1.287906489312     4.189351707291
H                    -0.447407419842    -2.612593313650     3.422044196184
H                    -1.023294563138    -2.784868520948     5.089578632814
