23
0 1 C6H11N3O2S
C                     3.722143693333     0.675144298855    -3.368599700371
C                     2.601776015987     0.789322415511    -2.565419726536
C                     2.029434164208     0.480083525215    -4.658202985825
C                     0.107589960927     0.745656532456    -3.002654656439
C                     1.500783627740     2.792811851887    -6.761440394917
C                    -0.804412485768     1.976783836385    -7.046020743759
N                     3.349569180807     0.485595757839    -4.675464603560
N                     1.513516515155     0.665304973595    -3.398715604064
N                     0.449448175880     1.880903678113    -6.274702974288
O                     1.853745668649    -0.128092762617    -7.221708218006
O                    -0.166619435355    -0.518616643331    -5.723738844633
S                     1.006429225049     0.277320603732    -6.103991935448
H                     4.763266300200     0.716404510559    -3.076573066159
H                     2.484297479278     0.936226136775    -1.500688206506
H                    -0.391084438133     1.528434248270    -3.577880180051
H                    -0.392403084241    -0.204769746678    -3.190890943808
H                     0.064476104954     0.989185197166    -1.940636624850
H                     2.401230352309     2.683160904478    -6.154100043033
H                     1.129659944497     3.815129109385    -6.650455068962
H                     1.757146818932     2.607365704280    -7.811899587525
H                    -1.530344424539     1.266265612653    -6.651090123948
H                    -0.653343309047     1.788073850745    -8.117524112804
H                    -1.191482532663     2.990944959620    -6.915660668465
