
  -OEChem-12122420533D

 22 22  0     0  0  0  0  0  0999 V2000
    4.0120    2.9873   -4.1883 C   0  0  0  0  0  0  0  0  0  0  0  0
    2.7814    3.5800   -4.4006 C   0  0  0  0  0  0  0  0  0  0  0  0
    2.8511    2.6411   -2.4025 C   0  0  0  0  0  0  0  0  0  0  0  0
    2.3292    2.1219   -1.1082 C   0  0  0  0  0  0  0  0  0  0  0  0
    0.6622    3.7964   -3.0706 C   0  0  0  0  0  0  0  0  0  0  0  0
    2.7086    1.0861    1.0518 C   0  0  0  0  0  0  0  0  0  0  0  0
    4.6567    2.0258   -0.1380 C   0  0  0  0  0  0  0  0  0  0  0  0
    4.0454    2.4107   -2.9485 N   0  0  0  0  0  0  0  0  0  0  0  0
    2.0436    3.3543   -3.2640 N   0  0  0  0  0  0  0  0  0  0  0  0
    3.2173    1.7742   -0.1302 N   0  0  0  0  0  0  0  0  0  0  0  0
    1.1011    1.9986   -0.9642 O   0  0  0  0  0  0  0  0  0  0  0  0
    4.8609    2.9480   -4.8588 H   0  0  0  0  0  0  0  0  0  0  0  0
    2.3788    4.1336   -5.2373 H   0  0  0  0  0  0  0  0  0  0  0  0
   -0.0218    2.9494   -3.1325 H   0  0  0  0  0  0  0  0  0  0  0  0
    0.5463    4.2558   -2.0894 H   0  0  0  0  0  0  0  0  0  0  0  0
    0.4294    4.5279   -3.8472 H   0  0  0  0  0  0  0  0  0  0  0  0
    3.3008    0.1815    1.2334 H   0  0  0  0  0  0  0  0  0  0  0  0
    1.6661    0.8173    0.8919 H   0  0  0  0  0  0  0  0  0  0  0  0
    2.7791    1.7316    1.9366 H   0  0  0  0  0  0  0  0  0  0  0  0
    4.9652    2.2696    0.8843 H   0  0  0  0  0  0  0  0  0  0  0  0
    4.9072    2.8545   -0.7944 H   0  0  0  0  0  0  0  0  0  0  0  0
    5.2153    1.1456   -0.4764 H   0  0  0  0  0  0  0  0  0  0  0  0
  1  2  2  0  0  0  0
  1  8  1  0  0  0  0
  1 12  1  0  0  0  0
  2  9  1  0  0  0  0
  2 13  1  0  0  0  0
  3  4  1  0  0  0  0
  3  8  2  0  0  0  0
  3  9  1  0  0  0  0
  4 10  1  0  0  0  0
  4 11  2  0  0  0  0
  5  9  1  0  0  0  0
  5 14  1  0  0  0  0
  5 15  1  0  0  0  0
  5 16  1  0  0  0  0
  6 10  1  0  0  0  0
  6 17  1  0  0  0  0
  6 18  1  0  0  0  0
  6 19  1  0  0  0  0
  7 10  1  0  0  0  0
  7 20  1  0  0  0  0
  7 21  1  0  0  0  0
  7 22  1  0  0  0  0
M  END
$$$$
