
  -OEChem-12122420533D

 27 27  0     0  0  0  0  0  0999 V2000
    2.7268   -0.2215   -5.0474 C   0  0  0  0  0  0  0  0  0  0  0  0
    2.0279    0.8539   -4.5084 C   0  0  0  0  0  0  0  0  0  0  0  0
    3.7468    0.3392   -5.8595 C   0  0  0  0  0  0  0  0  0  0  0  0
    3.6540    1.7361   -5.7899 C   0  0  0  0  0  0  0  0  0  0  0  0
    4.3168    2.8027   -6.5666 C   0  0  0  0  0  0  0  0  0  0  0  0
    2.0851    3.3471   -4.6031 C   0  0  0  0  0  0  0  0  0  0  0  0
    6.2610    3.5980   -7.7842 C   0  0  0  0  0  0  0  0  0  0  0  0
    6.5817    1.8290   -6.1002 C   0  0  0  0  0  0  0  0  0  0  0  0
    4.5622   -1.7269   -6.6607 C   0  0  0  0  0  0  0  0  0  0  0  0
    2.5689    2.0181   -4.9605 N   0  0  0  0  0  0  0  0  0  0  0  0
    5.6506    2.6506   -6.8613 N   0  0  0  0  0  0  0  0  0  0  0  0
    3.6725    3.7874   -6.9659 O   0  0  0  0  0  0  0  0  0  0  0  0
    4.6699   -0.3068   -6.6309 O   0  0  0  0  0  0  0  0  0  0  0  0
    2.5110   -1.2660   -4.8741 H   0  0  0  0  0  0  0  0  0  0  0  0
    1.1903    0.8610   -3.8239 H   0  0  0  0  0  0  0  0  0  0  0  0
    2.9032    3.9605   -4.2178 H   0  0  0  0  0  0  0  0  0  0  0  0
    1.6625    3.8490   -5.4739 H   0  0  0  0  0  0  0  0  0  0  0  0
    1.3279    3.2339   -3.8244 H   0  0  0  0  0  0  0  0  0  0  0  0
    6.7525    4.4219   -7.2480 H   0  0  0  0  0  0  0  0  0  0  0  0
    5.4931    4.0191   -8.4317 H   0  0  0  0  0  0  0  0  0  0  0  0
    7.0121    3.0782   -8.3888 H   0  0  0  0  0  0  0  0  0  0  0  0
    7.0189    1.0420   -6.7236 H   0  0  0  0  0  0  0  0  0  0  0  0
    6.0772    1.3606   -5.2573 H   0  0  0  0  0  0  0  0  0  0  0  0
    7.3903    2.4633   -5.7130 H   0  0  0  0  0  0  0  0  0  0  0  0
    5.3482   -2.0775   -7.3314 H   0  0  0  0  0  0  0  0  0  0  0  0
    3.5844   -2.0404   -7.0469 H   0  0  0  0  0  0  0  0  0  0  0  0
    4.7147   -2.1581   -5.6631 H   0  0  0  0  0  0  0  0  0  0  0  0
  1  2  2  0  0  0  0
  1  3  1  0  0  0  0
  1 14  1  0  0  0  0
  2 10  1  0  0  0  0
  2 15  1  0  0  0  0
  3  4  2  0  0  0  0
  3 13  1  0  0  0  0
  4  5  1  0  0  0  0
  4 10  1  0  0  0  0
  5 11  1  0  0  0  0
  5 12  2  0  0  0  0
  6 10  1  0  0  0  0
  6 16  1  0  0  0  0
  6 17  1  0  0  0  0
  6 18  1  0  0  0  0
  7 11  1  0  0  0  0
  7 19  1  0  0  0  0
  7 20  1  0  0  0  0
  7 21  1  0  0  0  0
  8 11  1  0  0  0  0
  8 22  1  0  0  0  0
  8 23  1  0  0  0  0
  8 24  1  0  0  0  0
  9 13  1  0  0  0  0
  9 25  1  0  0  0  0
  9 26  1  0  0  0  0
  9 27  1  0  0  0  0
M  END
$$$$
