26
0 1 C10H13NO2
C                    -7.822061816719    -5.503033243762     2.498548496733
C                    -6.490846321463    -5.548406570005     2.002231645648
C                    -8.644749654420    -4.453512091844     2.198966381434
C                    -6.025315672260    -4.522314993094     1.220768887577
C                    -8.190158130057    -3.355692163309     1.376849647654
C                    -4.586367967951    -6.366936149060    -0.954434230285
C                    -4.643110084470    -4.834438941668    -0.900683885919
C                    -3.668243808780    -6.689740809366     0.225525722621
C                    -4.623695461628    -4.566628059878     0.622734561451
C                    -6.406138808642    -2.293873880243     0.135112615823
N                    -6.840272871217    -3.447886216010     0.933227035517
O                    -8.869781570035    -2.375472053609     1.047570440675
O                    -3.868766119868    -5.637782113754     1.192441205973
H                    -8.185998437341    -6.317603143211     3.121011516191
H                    -5.820852430314    -6.363361117785     2.239696611579
H                    -9.667352313063    -4.390878624271     2.555110211449
H                    -5.582979331168    -6.788179190195    -0.793736684800
H                    -4.200129999302    -6.746069014054    -1.903957177460
H                    -3.750483106796    -4.397670587311    -1.360553227985
H                    -5.522525443983    -4.423586840117    -1.399024273615
H                    -3.897242092801    -7.645945153295     0.706082295220
H                    -2.612015251048    -6.692611405230    -0.073181186489
H                    -4.089815659466    -3.642234055653     0.866133837041
H                    -6.907367800103    -2.296547733312    -0.836892753238
H                    -5.329683806726    -2.303947096538    -0.009880569331
H                    -6.701011140930    -1.380479305893     0.653011594313
