
  -OEChem-12102412493D

 25 25  0     0  0  0  0  0  0999 V2000
    4.9663   15.4514    3.8013 C   0  0  0  0  0  0  0  0  0  0  0  0
    5.5887   14.3213    3.2853 C   0  0  0  0  0  0  0  0  0  0  0  0
    4.3426   16.1136    2.7101 C   0  0  0  0  0  0  0  0  0  0  0  0
    4.5926   15.3515    1.5561 C   0  0  0  0  0  0  0  0  0  0  0  0
    4.2911   15.6307    0.1503 C   0  0  0  0  0  0  0  0  0  0  0  0
    5.8884   13.2158    1.0638 C   0  0  0  0  0  0  0  0  0  0  0  0
    2.9095   16.7628   -1.4847 C   0  0  0  0  0  0  0  0  0  0  0  0
    1.8576   15.9121    0.5560 C   0  0  0  0  0  0  0  0  0  0  0  0
    5.3913   14.2682    1.9399 N   0  0  0  0  0  0  0  0  0  0  0  0
    3.7224   17.3695    2.7713 N   0  0  0  0  0  0  0  0  0  0  0  0
    3.0997   16.3252   -0.1028 N   0  0  0  0  0  0  0  0  0  0  0  0
    5.0621   15.3319   -0.7702 O   0  0  0  0  0  0  0  0  0  0  0  0
    4.9916   15.7814    4.8319 H   0  0  0  0  0  0  0  0  0  0  0  0
    6.1582   13.5525    3.7910 H   0  0  0  0  0  0  0  0  0  0  0  0
    5.0642   12.7384    0.5263 H   0  0  0  0  0  0  0  0  0  0  0  0
    6.5847   13.6228    0.3294 H   0  0  0  0  0  0  0  0  0  0  0  0
    6.3890   12.4667    1.6809 H   0  0  0  0  0  0  0  0  0  0  0  0
    2.6054   15.9345   -2.1400 H   0  0  0  0  0  0  0  0  0  0  0  0
    3.8415   17.1750   -1.8704 H   0  0  0  0  0  0  0  0  0  0  0  0
    2.1329   17.5336   -1.5049 H   0  0  0  0  0  0  0  0  0  0  0  0
    1.1892   16.7716    0.6793 H   0  0  0  0  0  0  0  0  0  0  0  0
    2.0676   15.4836    1.5350 H   0  0  0  0  0  0  0  0  0  0  0  0
    1.3310   15.1574   -0.0471 H   0  0  0  0  0  0  0  0  0  0  0  0
    3.1393   17.5004    3.5900 H   0  0  0  0  0  0  0  0  0  0  0  0
    3.2344   17.6209    1.9193 H   0  0  0  0  0  0  0  0  0  0  0  0
  1  2  2  0  0  0  0
  1  3  1  0  0  0  0
  1 13  1  0  0  0  0
  2  9  1  0  0  0  0
  2 14  1  0  0  0  0
  3  4  2  0  0  0  0
  3 10  1  0  0  0  0
  4  5  1  0  0  0  0
  4  9  1  0  0  0  0
  5 11  1  0  0  0  0
  5 12  2  0  0  0  0
  6  9  1  0  0  0  0
  6 15  1  0  0  0  0
  6 16  1  0  0  0  0
  6 17  1  0  0  0  0
  7 11  1  0  0  0  0
  7 18  1  0  0  0  0
  7 19  1  0  0  0  0
  7 20  1  0  0  0  0
  8 11  1  0  0  0  0
  8 21  1  0  0  0  0
  8 22  1  0  0  0  0
  8 23  1  0  0  0  0
 10 24  1  0  0  0  0
 10 25  1  0  0  0  0
M  END
$$$$
