
  -OEChem-12102412493D

 27 27  0     0  0  0  0  0  0999 V2000
    2.9663    3.0865   -4.8251 C   0  0  0  0  0  0  0  0  0  0  0  0
    3.9153    3.8723   -4.1792 C   0  0  0  0  0  0  0  0  0  0  0  0
    2.4864    2.1703   -3.8532 C   0  0  0  0  0  0  0  0  0  0  0  0
    3.1570    2.4098   -2.6459 C   0  0  0  0  0  0  0  0  0  0  0  0
    2.9275    1.9008   -1.2790 C   0  0  0  0  0  0  0  0  0  0  0  0
    4.9176    4.0875   -1.9037 C   0  0  0  0  0  0  0  0  0  0  0  0
    2.1913    0.1098    0.1856 C   0  0  0  0  0  0  0  0  0  0  0  0
    2.9383   -0.4743   -2.0879 C   0  0  0  0  0  0  0  0  0  0  0  0
    0.8727    1.1717   -5.2583 C   0  0  0  0  0  0  0  0  0  0  0  0
    4.0191    3.4808   -2.8798 N   0  0  0  0  0  0  0  0  0  0  0  0
    2.6054    0.5728   -1.1319 N   0  0  0  0  0  0  0  0  0  0  0  0
    2.9929    2.6645   -0.3008 O   0  0  0  0  0  0  0  0  0  0  0  0
    1.5163    1.2189   -3.9884 O   0  0  0  0  0  0  0  0  0  0  0  0
    2.6656    3.1807   -5.8588 H   0  0  0  0  0  0  0  0  0  0  0  0
    4.5287    4.6744   -4.5670 H   0  0  0  0  0  0  0  0  0  0  0  0
    4.3503    4.5992   -1.1258 H   0  0  0  0  0  0  0  0  0  0  0  0
    5.5378    3.3234   -1.4290 H   0  0  0  0  0  0  0  0  0  0  0  0
    5.5632    4.7933   -2.4306 H   0  0  0  0  0  0  0  0  0  0  0  0
    1.4255   -0.6649    0.0703 H   0  0  0  0  0  0  0  0  0  0  0  0
    1.7870    0.9467    0.7533 H   0  0  0  0  0  0  0  0  0  0  0  0
    3.0360   -0.3141    0.7467 H   0  0  0  0  0  0  0  0  0  0  0  0
    3.5693   -1.2263   -1.5953 H   0  0  0  0  0  0  0  0  0  0  0  0
    3.4887   -0.0613   -2.9310 H   0  0  0  0  0  0  0  0  0  0  0  0
    2.0370   -0.9658   -2.4693 H   0  0  0  0  0  0  0  0  0  0  0  0
    0.1220    0.3827   -5.1897 H   0  0  0  0  0  0  0  0  0  0  0  0
    1.5855    0.9286   -6.0565 H   0  0  0  0  0  0  0  0  0  0  0  0
    0.3815    2.1254   -5.4874 H   0  0  0  0  0  0  0  0  0  0  0  0
  1  2  2  0  0  0  0
  1  3  1  0  0  0  0
  1 14  1  0  0  0  0
  2 10  1  0  0  0  0
  2 15  1  0  0  0  0
  3  4  2  0  0  0  0
  3 13  1  0  0  0  0
  4  5  1  0  0  0  0
  4 10  1  0  0  0  0
  5 11  1  0  0  0  0
  5 12  2  0  0  0  0
  6 10  1  0  0  0  0
  6 16  1  0  0  0  0
  6 17  1  0  0  0  0
  6 18  1  0  0  0  0
  7 11  1  0  0  0  0
  7 19  1  0  0  0  0
  7 20  1  0  0  0  0
  7 21  1  0  0  0  0
  8 11  1  0  0  0  0
  8 22  1  0  0  0  0
  8 23  1  0  0  0  0
  8 24  1  0  0  0  0
  9 13  1  0  0  0  0
  9 25  1  0  0  0  0
  9 26  1  0  0  0  0
  9 27  1  0  0  0  0
M  END
$$$$
