
  -OEChem-12102412493D

 23 23  0     0  0  0  0  0  0999 V2000
   -3.7518   19.9213  -10.2290 C   0  0  0  0  0  0  0  0  0  0  0  0
   -4.7511   20.2249   -9.3170 C   0  0  0  0  0  0  0  0  0  0  0  0
   -2.5662   20.5000   -9.7159 C   0  0  0  0  0  0  0  0  0  0  0  0
   -2.8588   21.1386   -8.5098 C   0  0  0  0  0  0  0  0  0  0  0  0
   -2.0635   22.0460   -7.6426 C   0  0  0  0  0  0  0  0  0  0  0  0
   -4.9813   21.4990   -7.1723 C   0  0  0  0  0  0  0  0  0  0  0  0
    0.0566   22.6243   -6.6147 C   0  0  0  0  0  0  0  0  0  0  0  0
   -0.3077   20.2881   -7.3131 C   0  0  0  0  0  0  0  0  0  0  0  0
   -4.2177   20.9639   -8.2959 N   0  0  0  0  0  0  0  0  0  0  0  0
   -0.7892   21.6640   -7.3138 N   0  0  0  0  0  0  0  0  0  0  0  0
   -2.5474   23.1234   -7.2670 O   0  0  0  0  0  0  0  0  0  0  0  0
   -1.0272   20.4821  -10.5271 Cl  0  0  0  0  0  0  0  0  0  0  0  0
   -3.8556   19.3612  -11.1479 H   0  0  0  0  0  0  0  0  0  0  0  0
   -5.8001   19.9613   -9.3196 H   0  0  0  0  0  0  0  0  0  0  0  0
   -4.4993   21.2417   -6.2264 H   0  0  0  0  0  0  0  0  0  0  0  0
   -5.0504   22.5854   -7.2405 H   0  0  0  0  0  0  0  0  0  0  0  0
   -5.9775   21.0535   -7.1950 H   0  0  0  0  0  0  0  0  0  0  0  0
    0.0183   22.4728   -5.5274 H   0  0  0  0  0  0  0  0  0  0  0  0
   -0.2840   23.6349   -6.8352 H   0  0  0  0  0  0  0  0  0  0  0  0
    1.0915   22.4998   -6.9497 H   0  0  0  0  0  0  0  0  0  0  0  0
    0.5777   20.1827   -7.9484 H   0  0  0  0  0  0  0  0  0  0  0  0
   -1.0788   19.6110   -7.6758 H   0  0  0  0  0  0  0  0  0  0  0  0
   -0.0407   19.9949   -6.2890 H   0  0  0  0  0  0  0  0  0  0  0  0
  1  2  2  0  0  0  0
  1  3  1  0  0  0  0
  1 13  1  0  0  0  0
  2  9  1  0  0  0  0
  2 14  1  0  0  0  0
  3  4  2  0  0  0  0
  3 12  1  0  0  0  0
  4  5  1  0  0  0  0
  4  9  1  0  0  0  0
  5 10  1  0  0  0  0
  5 11  2  0  0  0  0
  6  9  1  0  0  0  0
  6 15  1  0  0  0  0
  6 16  1  0  0  0  0
  6 17  1  0  0  0  0
  7 10  1  0  0  0  0
  7 18  1  0  0  0  0
  7 19  1  0  0  0  0
  7 20  1  0  0  0  0
  8 10  1  0  0  0  0
  8 21  1  0  0  0  0
  8 22  1  0  0  0  0
  8 23  1  0  0  0  0
M  END
$$$$
