25
0 1 C11H12N2
C                     1.899541288889    -1.116604428321    -0.175359977055
C                     2.092412052060    -2.256552006427     0.611505209370
C                     1.605133251394     0.104992896763     0.439514096149
C                     1.988453754953    -2.172847511967     2.003052732884
C                     1.502884233720     0.182384825693     1.830924536306
C                     4.933435911376     0.088635849261     5.186731171230
C                     4.340764177144    -0.062736000949     6.419108238270
C                     1.690782487979    -0.954888782925     2.625925261417
C                     2.895242170965    -0.493346843990     4.789003558813
C                     2.009067345185    -0.742447104424     7.145315470901
C                     1.591968931091    -0.865116409185     4.132732931397
N                     4.027333806456    -0.180436892630     4.181322792521
N                     3.030198547217    -0.433072776512     6.158278542707
H                     1.978666426646    -1.179200266102    -1.257762152928
H                     2.323884901012    -3.209630093107     0.142411403629
H                     1.457129217247     0.996811535081    -0.164399880922
H                     2.147932303691    -3.061139644560     2.610849796451
H                     1.285537299439     1.137125973468     2.304853010880
H                     5.953498895124     0.376095446015     4.966394496835
H                     4.710082228367     0.054236160796     7.428574384872
H                     1.091142310106    -0.184463539612     6.939297273473
H                     1.776161315009    -1.812739245043     7.152938459125
H                     2.369067781669    -0.457909349055     8.135213168139
H                     0.825772771503    -0.127691148865     4.407745153008
H                     1.244147989662    -1.824665311840     4.536577710658
