17
0 1 C7H7NO2
C                     1.403986765202     0.245367433806     1.840944136366
C                     0.307475491910    -0.318721259068     1.176604535465
C                     1.864080287902    -0.349275855960     3.012982645102
C                    -0.281737989875    -1.456501888248     1.727099200266
C                     1.189918475332    -1.489647495516     3.468853698793
C                     1.735314607669    -3.391552994722     4.879676068280
C                     1.854953049956    -4.283655219107     3.666232501454
N                     0.143348777556    -2.035443267774     2.862553524093
O                     1.805823475702    -3.773852101596     6.020530873088
O                     1.611365329070    -2.022005092973     4.668428345860
H                     1.893978085916     1.132894302068     1.449619478239
H                    -0.083287857367     0.112552389013     0.260230931549
H                     2.708062031349     0.039393523219     3.573040065985
H                    -1.138700815431    -1.925963302814     1.247614883574
H                     0.861377089553    -4.493151756550     3.265373599312
H                     2.325031733863    -5.214639707440     3.983996124399
H                     2.440628828626    -3.814127990771     2.871899349270
