26
0 1 C11H13NO
C                    -3.809416244513    -0.750410036087    -6.204389018096
C                    -2.501409525073    -1.102895013157    -5.861689062121
C                    -4.882025895559    -1.338682598457    -5.526878789099
C                    -2.274944497028    -2.024939422940    -4.837181069180
C                    -4.677144508366    -2.279436946958    -4.511698671645
C                    -3.351277444220    -2.606338364935    -4.154256658804
C                    -3.680361337183    -3.482634420586    -1.868156217158
C                    -5.828599658764    -2.942507221068    -3.796400802927
C                    -4.618933110154    -2.310334572393    -1.627918669566
C                    -5.978881716134    -2.464144982317    -2.337691335526
C                    -2.102395250019    -4.608209492733    -3.354708899134
N                    -3.102980622962    -3.562075387178    -3.125673175825
O                    -3.430452060046    -4.313997081469    -0.995616991613
H                    -3.994203344239    -0.030151506736    -6.996761388795
H                    -1.657708250840    -0.656316221325    -6.381097047636
H                    -5.901626071502    -1.079367677952    -5.803620049621
H                    -1.258649604277    -2.287298350682    -4.557673878755
H                    -6.760140365263    -2.768749661400    -4.343044237700
H                    -5.658250921101    -4.025764880695    -3.792901010068
H                    -4.759422171729    -2.238057749757    -0.548242428383
H                    -4.134871183043    -1.389856373692    -1.970166131401
H                    -6.491630927221    -1.495996796528    -2.310735334170
H                    -6.605525971112    -3.176269671641    -1.790457561241
H                    -1.100792480972    -4.288110171540    -3.043949396956
H                    -2.086589451709    -4.860851832577    -4.416592874260
H                    -2.374079804243    -5.484770533872    -2.766532747561
