
  -OEChem-12102412493D

 25 26  0     0  0  0  0  0  0999 V2000
    0.9214   -8.5553    0.5045 C   0  0  0  0  0  0  0  0  0  0  0  0
    0.7726   -9.1811   -0.7365 C   0  0  0  0  0  0  0  0  0  0  0  0
    1.8609   -9.0493    1.4176 C   0  0  0  0  0  0  0  0  0  0  0  0
    1.5604  -10.2916   -1.0605 C   0  0  0  0  0  0  0  0  0  0  0  0
    2.6446  -10.1584    1.0908 C   0  0  0  0  0  0  0  0  0  0  0  0
    6.7286  -12.0139    0.8186 C   0  0  0  0  0  0  0  0  0  0  0  0
    6.8508  -10.9804   -0.0826 C   0  0  0  0  0  0  0  0  0  0  0  0
    2.5015  -10.7928   -0.1527 C   0  0  0  0  0  0  0  0  0  0  0  0
    4.8028  -11.8298   -0.1383 C   0  0  0  0  0  0  0  0  0  0  0  0
    5.2301   -9.8656   -1.6765 C   0  0  0  0  0  0  0  0  0  0  0  0
    3.3591  -12.0002   -0.5007 C   0  0  0  0  0  0  0  0  0  0  0  0
    5.4510  -12.5337    0.7788 N   0  0  0  0  0  0  0  0  0  0  0  0
    5.6149  -10.8710   -0.6972 N   0  0  0  0  0  0  0  0  0  0  0  0
    0.3134   -7.6906    0.7579 H   0  0  0  0  0  0  0  0  0  0  0  0
    0.0473   -8.8048   -1.4536 H   0  0  0  0  0  0  0  0  0  0  0  0
    1.9830   -8.5684    2.3850 H   0  0  0  0  0  0  0  0  0  0  0  0
    1.4428  -10.7705   -2.0308 H   0  0  0  0  0  0  0  0  0  0  0  0
    3.3788  -10.5360    1.7986 H   0  0  0  0  0  0  0  0  0  0  0  0
    7.4829  -12.4130    1.4844 H   0  0  0  0  0  0  0  0  0  0  0  0
    7.6772  -10.3351   -0.3465 H   0  0  0  0  0  0  0  0  0  0  0  0
    4.6089  -10.3152   -2.4545 H   0  0  0  0  0  0  0  0  0  0  0  0
    4.6662   -9.0540   -1.2070 H   0  0  0  0  0  0  0  0  0  0  0  0
    6.1285   -9.4592   -2.1446 H   0  0  0  0  0  0  0  0  0  0  0  0
    3.0107  -12.8815    0.0462 H   0  0  0  0  0  0  0  0  0  0  0  0
    3.2519  -12.2277   -1.5684 H   0  0  0  0  0  0  0  0  0  0  0  0
  1  2  1  0  0  0  0
  1  3  2  0  0  0  0
  1 14  1  0  0  0  0
  2  4  2  0  0  0  0
  2 15  1  0  0  0  0
  3  5  1  0  0  0  0
  3 16  1  0  0  0  0
  4  8  1  0  0  0  0
  4 17  1  0  0  0  0
  5  8  2  0  0  0  0
  5 18  1  0  0  0  0
  6  7  2  0  0  0  0
  6 12  1  0  0  0  0
  6 19  1  0  0  0  0
  7 13  1  0  0  0  0
  7 20  1  0  0  0  0
  8 11  1  0  0  0  0
  9 11  1  0  0  0  0
  9 12  2  0  0  0  0
  9 13  1  0  0  0  0
 10 13  1  0  0  0  0
 10 21  1  0  0  0  0
 10 22  1  0  0  0  0
 10 23  1  0  0  0  0
 11 24  1  0  0  0  0
 11 25  1  0  0  0  0
M  END
$$$$
