
  -OEChem-12102412493D

 30 32  0     0  0  0  0  0  0999 V2000
   -4.5487    9.5761   -6.0059 C   0  0  0  0  0  0  0  0  0  0  0  0
   -4.6140    9.5125   -4.6205 C   0  0  0  0  0  0  0  0  0  0  0  0
   -5.6085   10.1315   -6.7507 C   0  0  0  0  0  0  0  0  0  0  0  0
   -6.1368   10.0896   -2.5936 C   0  0  0  0  0  0  0  0  0  0  0  0
   -7.3794   10.6684   -2.5544 C   0  0  0  0  0  0  0  0  0  0  0  0
   -5.7598   10.0139   -3.9770 C   0  0  0  0  0  0  0  0  0  0  0  0
   -6.7618   10.6467   -6.1564 C   0  0  0  0  0  0  0  0  0  0  0  0
   -6.8284   10.5751   -4.7461 C   0  0  0  0  0  0  0  0  0  0  0  0
   -8.8683   10.0629   -7.3827 C   0  0  0  0  0  0  0  0  0  0  0  0
   -7.3954   11.8164   -8.3248 C   0  0  0  0  0  0  0  0  0  0  0  0
   -9.0310    9.5894   -8.6299 C   0  0  0  0  0  0  0  0  0  0  0  0
   -7.6263   11.2961   -9.5418 C   0  0  0  0  0  0  0  0  0  0  0  0
   -7.8955   11.1807   -7.0422 C   0  0  0  0  0  0  0  0  0  0  0  0
   -9.0744   11.6461   -4.0925 C   0  0  0  0  0  0  0  0  0  0  0  0
   -7.8181   10.9616   -3.8379 N   0  0  0  0  0  0  0  0  0  0  0  0
   -8.3421   10.1101   -9.7292 N   0  0  0  0  0  0  0  0  0  0  0  0
   -3.6750    9.1946   -6.5285 H   0  0  0  0  0  0  0  0  0  0  0  0
   -3.8008    9.0848   -4.0389 H   0  0  0  0  0  0  0  0  0  0  0  0
   -5.5350   10.1640   -7.8338 H   0  0  0  0  0  0  0  0  0  0  0  0
   -5.5629    9.7506   -1.7410 H   0  0  0  0  0  0  0  0  0  0  0  0
   -8.0104   10.9009   -1.7059 H   0  0  0  0  0  0  0  0  0  0  0  0
   -9.3962    9.5715   -6.5706 H   0  0  0  0  0  0  0  0  0  0  0  0
   -6.7974   12.7196   -8.2479 H   0  0  0  0  0  0  0  0  0  0  0  0
   -9.6893    8.7536   -8.8476 H   0  0  0  0  0  0  0  0  0  0  0  0
   -7.2455   11.7577  -10.4481 H   0  0  0  0  0  0  0  0  0  0  0  0
   -8.4196   11.9570   -6.4763 H   0  0  0  0  0  0  0  0  0  0  0  0
   -8.9155   12.6747   -4.4345 H   0  0  0  0  0  0  0  0  0  0  0  0
   -9.6775   11.1150   -4.8325 H   0  0  0  0  0  0  0  0  0  0  0  0
   -9.6415   11.6818   -3.1600 H   0  0  0  0  0  0  0  0  0  0  0  0
   -8.7436    9.9519  -10.6428 H   0  0  0  0  0  0  0  0  0  0  0  0
  1  2  1  0  0  0  0
  1  3  2  0  0  0  0
  1 17  1  0  0  0  0
  2  6  2  0  0  0  0
  2 18  1  0  0  0  0
  3  7  1  0  0  0  0
  3 19  1  0  0  0  0
  4  5  2  0  0  0  0
  4  6  1  0  0  0  0
  4 20  1  0  0  0  0
  5 15  1  0  0  0  0
  5 21  1  0  0  0  0
  6  8  1  0  0  0  0
  7  8  2  0  0  0  0
  7 13  1  0  0  0  0
  8 15  1  0  0  0  0
  9 11  2  0  0  0  0
  9 13  1  0  0  0  0
  9 22  1  0  0  0  0
 10 12  2  0  0  0  0
 10 13  1  0  0  0  0
 10 23  1  0  0  0  0
 11 16  1  0  0  0  0
 11 24  1  0  0  0  0
 12 16  1  0  0  0  0
 12 25  1  0  0  0  0
 13 26  1  0  0  0  0
 14 15  1  0  0  0  0
 14 27  1  0  0  0  0
 14 28  1  0  0  0  0
 14 29  1  0  0  0  0
 16 30  1  0  0  0  0
M  END
$$$$
