17
0 1 C7H7NO2
C                     1.209528782615    -1.370868399976     1.804331238303
C                    -0.053101313808    -1.512098050350     1.219291705269
C                     1.489408344459    -2.069453995114     2.978554576863
C                    -0.982541398453    -2.347576106525     1.842093742106
C                     0.476297807325    -2.873441705043     3.502830135450
C                     1.029733713148    -4.876030831064     4.628624413964
C                     1.076421150450    -5.480639041010     6.007791048160
N                    -0.727301295931    -3.021578737298     2.974278274656
O                     1.240457338458    -5.446677775864     3.584651187673
O                     0.708981530154    -3.537553156482     4.709734633025
H                     1.963687187264    -0.731316422725     1.353615106200
H                    -0.314129048650    -0.988816561737     0.304381107003
H                     2.450863803811    -2.006024422762     3.477459310887
H                    -1.976851433482    -2.483769217544     1.420790014928
H                     1.688555022346    -4.866663817632     6.673566772510
H                     1.474924340862    -6.492953314612     5.948568397591
H                     0.063594622724    -5.506137772996     6.421574701498
