
  -OEChem-12102412493D

 23 23  0     0  0  0  0  0  0999 V2000
    3.0227    3.2320   -4.7825 C   0  0  0  0  0  0  0  0  0  0  0  0
    2.0816    2.5521   -3.9617 C   0  0  0  0  0  0  0  0  0  0  0  0
    4.1652    3.4163   -4.0218 C   0  0  0  0  0  0  0  0  0  0  0  0
    2.6824    2.3237   -2.7321 C   0  0  0  0  0  0  0  0  0  0  0  0
    2.0825    1.6064   -1.5784 C   0  0  0  0  0  0  0  0  0  0  0  0
    4.8409    3.1087   -1.6422 C   0  0  0  0  0  0  0  0  0  0  0  0
    2.2842    0.0027    0.2313 C   0  0  0  0  0  0  0  0  0  0  0  0
    3.8842   -0.1219   -1.6335 C   0  0  0  0  0  0  0  0  0  0  0  0
    3.9703    2.8481   -2.7827 N   0  0  0  0  0  0  0  0  0  0  0  0
    2.8658    0.6596   -0.9356 N   0  0  0  0  0  0  0  0  0  0  0  0
    0.9355    1.8609   -1.2036 O   0  0  0  0  0  0  0  0  0  0  0  0
    2.8874    3.5464   -5.8093 H   0  0  0  0  0  0  0  0  0  0  0  0
    1.0839    2.2279   -4.2265 H   0  0  0  0  0  0  0  0  0  0  0  0
    5.0898    3.9304   -4.2504 H   0  0  0  0  0  0  0  0  0  0  0  0
    4.6619    4.1108   -1.2373 H   0  0  0  0  0  0  0  0  0  0  0  0
    4.6532    2.3778   -0.8568 H   0  0  0  0  0  0  0  0  0  0  0  0
    5.8848    3.0322   -1.9572 H   0  0  0  0  0  0  0  0  0  0  0  0
    1.6410   -0.8400   -0.0574 H   0  0  0  0  0  0  0  0  0  0  0  0
    1.6790    0.7176    0.7878 H   0  0  0  0  0  0  0  0  0  0  0  0
    3.0922   -0.3726    0.8672 H   0  0  0  0  0  0  0  0  0  0  0  0
    4.7721   -0.2434   -1.0021 H   0  0  0  0  0  0  0  0  0  0  0  0
    4.1780    0.3651   -2.5617 H   0  0  0  0  0  0  0  0  0  0  0  0
    3.4994   -1.1220   -1.8779 H   0  0  0  0  0  0  0  0  0  0  0  0
  1  2  1  0  0  0  0
  1  3  2  0  0  0  0
  1 12  1  0  0  0  0
  2  4  2  0  0  0  0
  2 13  1  0  0  0  0
  3  9  1  0  0  0  0
  3 14  1  0  0  0  0
  4  5  1  0  0  0  0
  4  9  1  0  0  0  0
  5 10  1  0  0  0  0
  5 11  2  0  0  0  0
  6  9  1  0  0  0  0
  6 15  1  0  0  0  0
  6 16  1  0  0  0  0
  6 17  1  0  0  0  0
  7 10  1  0  0  0  0
  7 18  1  0  0  0  0
  7 19  1  0  0  0  0
  7 20  1  0  0  0  0
  8 10  1  0  0  0  0
  8 21  1  0  0  0  0
  8 22  1  0  0  0  0
  8 23  1  0  0  0  0
M  END
$$$$
