21
0 1 C9H9N3
C                    16.249583675815   -16.593230350987    36.712273051309
C                    14.888337283893   -16.635268733655    37.018140177880
C                    17.153547740759   -16.276219001073    37.726278675820
C                    14.501270221557   -16.360394844258    38.335044557025
C                    18.585608367716   -15.673973064655    42.034606337866
C                    19.294011073254   -14.801255548723    41.235581061314
C                    16.666391031859   -16.000908318222    39.016116640784
C                    17.588313323417   -15.679667990419    40.124659837483
C                    19.014055510978   -13.953078604770    38.886272619106
N                    15.354192408686   -16.045119036841    39.314321080257
N                    17.529833801697   -16.208554301793    41.339896981672
N                    18.655584063251   -14.807937379402    40.010495818108
H                    16.603570246137   -16.816561152374    35.709017767668
H                    14.143899335426   -16.880279417353    36.266023180156
H                    18.221861472999   -16.276848086941    37.532537024547
H                    13.448776226154   -16.391545823867    38.614508386670
H                    18.780053708260   -15.941997628202    43.065360627474
H                    20.158603602292   -14.179102351939    41.421553798456
H                    19.788288078486   -14.413952304015    38.263755337817
H                    18.134162140399   -13.760816146678    38.271620710370
H                    19.387955464247   -12.998930310099    39.264356252694
