
  -OEChem-12102412493D

 25 26  0     0  0  0  0  0  0999 V2000
   -1.4916    1.9665   -0.4259 C   0  0  0  0  0  0  0  0  0  0  0  0
   -0.9398    2.7226    0.6153 C   0  0  0  0  0  0  0  0  0  0  0  0
   -2.0951    2.6185   -1.5050 C   0  0  0  0  0  0  0  0  0  0  0  0
   -0.9908    4.1180    0.5759 C   0  0  0  0  0  0  0  0  0  0  0  0
   -2.1433    4.0167   -1.5413 C   0  0  0  0  0  0  0  0  0  0  0  0
    1.1720    8.0416    0.9158 C   0  0  0  0  0  0  0  0  0  0  0  0
    1.7974    7.4904   -0.1797 C   0  0  0  0  0  0  0  0  0  0  0  0
   -1.5951    4.7805   -0.5036 C   0  0  0  0  0  0  0  0  0  0  0  0
   -0.3536    6.9502   -0.1516 C   0  0  0  0  0  0  0  0  0  0  0  0
    1.0088    5.9813   -2.0526 C   0  0  0  0  0  0  0  0  0  0  0  0
   -1.6469    6.3006   -0.5388 C   0  0  0  0  0  0  0  0  0  0  0  0
   -0.1643    7.6980    0.9262 N   0  0  0  0  0  0  0  0  0  0  0  0
    0.8130    6.7970   -0.8635 N   0  0  0  0  0  0  0  0  0  0  0  0
   -1.4495    0.8807   -0.3962 H   0  0  0  0  0  0  0  0  0  0  0  0
   -0.4685    2.2236    1.4585 H   0  0  0  0  0  0  0  0  0  0  0  0
   -2.5252    2.0411   -2.3197 H   0  0  0  0  0  0  0  0  0  0  0  0
   -0.5554    4.7034    1.3823 H   0  0  0  0  0  0  0  0  0  0  0  0
   -2.6103    4.5175   -2.3874 H   0  0  0  0  0  0  0  0  0  0  0  0
    1.6032    8.6656    1.6881 H   0  0  0  0  0  0  0  0  0  0  0  0
    2.8176    7.5300   -0.5354 H   0  0  0  0  0  0  0  0  0  0  0  0
    1.0906    4.9212   -1.7942 H   0  0  0  0  0  0  0  0  0  0  0  0
    0.1681    6.1073   -2.7385 H   0  0  0  0  0  0  0  0  0  0  0  0
    1.9200    6.3017   -2.5613 H   0  0  0  0  0  0  0  0  0  0  0  0
   -1.9636    6.6313   -1.5355 H   0  0  0  0  0  0  0  0  0  0  0  0
   -2.3956    6.6695    0.1686 H   0  0  0  0  0  0  0  0  0  0  0  0
  1  2  1  0  0  0  0
  1  3  2  0  0  0  0
  1 14  1  0  0  0  0
  2  4  2  0  0  0  0
  2 15  1  0  0  0  0
  3  5  1  0  0  0  0
  3 16  1  0  0  0  0
  4  8  1  0  0  0  0
  4 17  1  0  0  0  0
  5  8  2  0  0  0  0
  5 18  1  0  0  0  0
  6  7  2  0  0  0  0
  6 12  1  0  0  0  0
  6 19  1  0  0  0  0
  7 13  1  0  0  0  0
  7 20  1  0  0  0  0
  8 11  1  0  0  0  0
  9 11  1  0  0  0  0
  9 12  2  0  0  0  0
  9 13  1  0  0  0  0
 10 13  1  0  0  0  0
 10 21  1  0  0  0  0
 10 22  1  0  0  0  0
 10 23  1  0  0  0  0
 11 24  1  0  0  0  0
 11 25  1  0  0  0  0
M  END
$$$$
