
  -OEChem-12102412493D

 26 27  0     1  0  0  0  0  0999 V2000
  -10.4775  -11.0729    9.6128 C   0  0  0  0  0  0  0  0  0  0  0  0
   -9.8041   -9.9322   10.1315 C   0  0  0  0  0  0  0  0  0  0  0  0
  -11.7460  -10.9643    9.1223 C   0  0  0  0  0  0  0  0  0  0  0  0
  -10.4413   -8.7166   10.1542 C   0  0  0  0  0  0  0  0  0  0  0  0
  -12.4447   -9.6957    9.1018 C   0  0  0  0  0  0  0  0  0  0  0  0
   -8.3415   -8.0899   12.5670 C   0  0  0  0  0  0  0  0  0  0  0  0
   -8.3195   -7.5675   11.1104 C   0  0  0  0  0  0  0  0  0  0  0  0
   -9.8093   -7.8796   13.0085 C   0  0  0  0  0  0  0  0  0  0  0  0
   -9.8052   -7.4581   10.7333 C   0  0  2  0  0  0  0  0  0  0  0  0
  -12.4395   -7.3146    9.6894 C   0  0  0  0  0  0  0  0  0  0  0  0
  -11.7294   -8.6038    9.6729 N   0  0  0  0  0  0  0  0  0  0  0  0
  -13.5773   -9.5306    8.6351 O   0  0  0  0  0  0  0  0  0  0  0  0
  -10.4385   -7.1004   11.9751 O   0  0  0  0  0  0  0  0  0  0  0  0
   -9.9704  -12.0352    9.6067 H   0  0  0  0  0  0  0  0  0  0  0  0
   -8.7947  -10.0233   10.5083 H   0  0  0  0  0  0  0  0  0  0  0  0
  -12.2880  -11.8094    8.7119 H   0  0  0  0  0  0  0  0  0  0  0  0
   -8.0651   -9.1456   12.6278 H   0  0  0  0  0  0  0  0  0  0  0  0
   -7.6449   -7.5299   13.1954 H   0  0  0  0  0  0  0  0  0  0  0  0
   -7.8973   -6.5603   11.0800 H   0  0  0  0  0  0  0  0  0  0  0  0
   -7.7361   -8.1862   10.4272 H   0  0  0  0  0  0  0  0  0  0  0  0
  -10.3313   -8.8380   13.1188 H   0  0  0  0  0  0  0  0  0  0  0  0
   -9.9133   -7.3132   13.9364 H   0  0  0  0  0  0  0  0  0  0  0  0
   -9.9770   -6.6225   10.0511 H   0  0  0  0  0  0  0  0  0  0  0  0
  -12.0737   -6.6636    8.8880 H   0  0  0  0  0  0  0  0  0  0  0  0
  -12.3096   -6.8289   10.6547 H   0  0  0  0  0  0  0  0  0  0  0  0
  -13.4913   -7.5235    9.5060 H   0  0  0  0  0  0  0  0  0  0  0  0
  1  2  1  0  0  0  0
  1  3  2  0  0  0  0
  1 14  1  0  0  0  0
  2  4  2  0  0  0  0
  2 15  1  0  0  0  0
  3  5  1  0  0  0  0
  3 16  1  0  0  0  0
  4  9  1  0  0  0  0
  4 11  1  0  0  0  0
  5 11  1  0  0  0  0
  5 12  2  0  0  0  0
  6  7  1  0  0  0  0
  6  8  1  0  0  0  0
  6 17  1  0  0  0  0
  6 18  1  0  0  0  0
  7  9  1  0  0  0  0
  7 19  1  0  0  0  0
  7 20  1  0  0  0  0
  8 13  1  0  0  0  0
  8 21  1  0  0  0  0
  8 22  1  0  0  0  0
  9 13  1  0  0  0  0
  9 23  1  0  0  0  0
 10 11  1  0  0  0  0
 10 24  1  0  0  0  0
 10 25  1  0  0  0  0
 10 26  1  0  0  0  0
M  END
$$$$
