
  -OEChem-12122420533D

 23 23  0     0  0  0  0  0  0999 V2000
   -5.5862   -2.8789   12.8184 C   0  0  0  0  0  0  0  0  0  0  0  0
   -4.9122   -2.6551   11.6346 C   0  0  0  0  0  0  0  0  0  0  0  0
   -6.4826   -1.1524   11.9260 C   0  0  0  0  0  0  0  0  0  0  0  0
   -5.1318   -0.9020    9.7996 C   0  0  0  0  0  0  0  0  0  0  0  0
   -9.6120   -0.6798   13.0064 C   0  0  0  0  0  0  0  0  0  0  0  0
   -7.9892    0.7787   14.2022 C   0  0  0  0  0  0  0  0  0  0  0  0
   -6.5696   -1.9295   12.9907 N   0  0  0  0  0  0  0  0  0  0  0  0
   -5.4946   -1.5415   11.0642 N   0  0  0  0  0  0  0  0  0  0  0  0
   -8.5592    0.3439   12.9176 N   0  0  0  0  0  0  0  0  0  0  0  0
   -6.6662    1.4474   11.6451 O   0  0  0  0  0  0  0  0  0  0  0  0
   -8.3226   -0.0418   10.4245 O   0  0  0  0  0  0  0  0  0  0  0  0
   -7.5343    0.2676   11.6198 S   0  0  0  0  0  0  0  0  0  0  0  0
   -5.4206   -3.6612   13.5472 H   0  0  0  0  0  0  0  0  0  0  0  0
   -4.0922   -3.1731   11.1571 H   0  0  0  0  0  0  0  0  0  0  0  0
   -5.9905   -0.8987    9.1251 H   0  0  0  0  0  0  0  0  0  0  0  0
   -4.8140    0.1270    9.9803 H   0  0  0  0  0  0  0  0  0  0  0  0
   -4.3141   -1.4639    9.3478 H   0  0  0  0  0  0  0  0  0  0  0  0
   -9.9736   -0.9169   12.0063 H   0  0  0  0  0  0  0  0  0  0  0  0
  -10.4394   -0.2548   13.5821 H   0  0  0  0  0  0  0  0  0  0  0  0
   -9.2457   -1.5879   13.4980 H   0  0  0  0  0  0  0  0  0  0  0  0
   -7.2360    1.5457   14.0245 H   0  0  0  0  0  0  0  0  0  0  0  0
   -7.5470   -0.0621   14.7481 H   0  0  0  0  0  0  0  0  0  0  0  0
   -8.7989    1.2184   14.7918 H   0  0  0  0  0  0  0  0  0  0  0  0
  1  2  2  0  0  0  0
  1  7  1  0  0  0  0
  1 13  1  0  0  0  0
  2  8  1  0  0  0  0
  2 14  1  0  0  0  0
  3  7  2  0  0  0  0
  3  8  1  0  0  0  0
  3 12  1  0  0  0  0
  4  8  1  0  0  0  0
  4 15  1  0  0  0  0
  4 16  1  0  0  0  0
  4 17  1  0  0  0  0
  5  9  1  0  0  0  0
  5 18  1  0  0  0  0
  5 19  1  0  0  0  0
  5 20  1  0  0  0  0
  6  9  1  0  0  0  0
  6 21  1  0  0  0  0
  6 22  1  0  0  0  0
  6 23  1  0  0  0  0
  9 12  1  0  0  0  0
 10 12  2  0  0  0  0
 11 12  2  0  0  0  0
M  END
$$$$
