20
0 1 C6H8N4O2
C                     1.201162797837    -2.669374785078    -1.159030533840
C                     1.894858377498    -0.707644092964    -0.630057881912
C                     0.600111219675    -0.815762495545    -0.105191650431
C                     2.887185252137     0.401529200331    -0.593219390312
C                    -0.310745082099     0.077339614472     0.678542140433
C                    -1.093708285109    -2.757310061921    -0.185627898813
N                     2.243639198761    -1.872099994989    -1.279110526884
N                     0.182197957345    -2.090343493051    -0.463392127676
N                     4.049248886870     0.109447230058    -1.228791727392
N                     0.164520866707     1.306421320392     0.974655774288
O                     2.697770963380     1.498700325855    -0.042188758956
O                    -1.433785077900    -0.319788673003     1.018921003451
H                     1.127150924838    -3.674493238176    -1.554568410959
H                    -1.254474634215    -2.839116958655     0.888427051615
H                    -1.920050737046    -2.190810601720    -0.612665689701
H                    -1.045419912116    -3.750973294229    -0.636357969443
H                     4.780073190665     0.807243816683    -1.247834126984
H                     4.170133255733    -0.796929417291    -1.664169763879
H                    -0.442854786588     1.910446848019     1.513017739175
H                     1.106477897422     1.601616874121     0.690051675972
