
  -OEChem-12122420533D

 25 26  0     0  0  0  0  0  0999 V2000
    1.8995   -1.1166   -0.1754 C   0  0  0  0  0  0  0  0  0  0  0  0
    2.0924   -2.2566    0.6115 C   0  0  0  0  0  0  0  0  0  0  0  0
    1.6051    0.1050    0.4395 C   0  0  0  0  0  0  0  0  0  0  0  0
    1.9885   -2.1728    2.0031 C   0  0  0  0  0  0  0  0  0  0  0  0
    1.5029    0.1824    1.8309 C   0  0  0  0  0  0  0  0  0  0  0  0
    4.9334    0.0886    5.1867 C   0  0  0  0  0  0  0  0  0  0  0  0
    4.3408   -0.0627    6.4191 C   0  0  0  0  0  0  0  0  0  0  0  0
    1.6908   -0.9549    2.6259 C   0  0  0  0  0  0  0  0  0  0  0  0
    2.8952   -0.4933    4.7890 C   0  0  0  0  0  0  0  0  0  0  0  0
    2.0091   -0.7424    7.1453 C   0  0  0  0  0  0  0  0  0  0  0  0
    1.5920   -0.8651    4.1327 C   0  0  0  0  0  0  0  0  0  0  0  0
    4.0273   -0.1804    4.1813 N   0  0  0  0  0  0  0  0  0  0  0  0
    3.0302   -0.4331    6.1583 N   0  0  0  0  0  0  0  0  0  0  0  0
    1.9787   -1.1792   -1.2578 H   0  0  0  0  0  0  0  0  0  0  0  0
    2.3239   -3.2096    0.1424 H   0  0  0  0  0  0  0  0  0  0  0  0
    1.4571    0.9968   -0.1644 H   0  0  0  0  0  0  0  0  0  0  0  0
    2.1479   -3.0611    2.6108 H   0  0  0  0  0  0  0  0  0  0  0  0
    1.2855    1.1371    2.3049 H   0  0  0  0  0  0  0  0  0  0  0  0
    5.9535    0.3761    4.9664 H   0  0  0  0  0  0  0  0  0  0  0  0
    4.7101    0.0542    7.4286 H   0  0  0  0  0  0  0  0  0  0  0  0
    1.0911   -0.1845    6.9393 H   0  0  0  0  0  0  0  0  0  0  0  0
    1.7762   -1.8127    7.1529 H   0  0  0  0  0  0  0  0  0  0  0  0
    2.3691   -0.4579    8.1352 H   0  0  0  0  0  0  0  0  0  0  0  0
    0.8258   -0.1277    4.4077 H   0  0  0  0  0  0  0  0  0  0  0  0
    1.2441   -1.8247    4.5366 H   0  0  0  0  0  0  0  0  0  0  0  0
  1  2  1  0  0  0  0
  1  3  2  0  0  0  0
  1 14  1  0  0  0  0
  2  4  2  0  0  0  0
  2 15  1  0  0  0  0
  3  5  1  0  0  0  0
  3 16  1  0  0  0  0
  4  8  1  0  0  0  0
  4 17  1  0  0  0  0
  5  8  2  0  0  0  0
  5 18  1  0  0  0  0
  6  7  2  0  0  0  0
  6 12  1  0  0  0  0
  6 19  1  0  0  0  0
  7 13  1  0  0  0  0
  7 20  1  0  0  0  0
  8 11  1  0  0  0  0
  9 11  1  0  0  0  0
  9 12  2  0  0  0  0
  9 13  1  0  0  0  0
 10 13  1  0  0  0  0
 10 21  1  0  0  0  0
 10 22  1  0  0  0  0
 10 23  1  0  0  0  0
 11 24  1  0  0  0  0
 11 25  1  0  0  0  0
M  END
$$$$
