23
0 1 C8H12N2O
C                     2.963329068991     3.281427227185    -5.015317342720
C                     2.152304482225     2.676827367656    -4.024312834304
C                     4.136535175491     3.677046602886    -4.386433239363
C                     2.852234319772     2.715200727173    -2.816612708209
C                     2.563726465297     2.094726313339    -1.505012039409
C                     5.145916997705     3.565660663324    -2.103020605188
C                     0.948546789851     1.185583968924     0.067742387786
C                     0.143599977978     2.779176918416    -1.630497508867
N                     4.072993375236     3.326839739000    -3.064732646693
N                     1.246053482713     1.971011333242    -1.124182193060
O                     3.483358880063     1.657226985334    -0.795991313099
H                     2.727895164571     3.414379032537    -6.063141322780
H                     1.179896033590     2.226967110898    -4.173264196202
H                     5.005729964022     4.188031224939    -4.778908402831
H                     4.749556123020     4.021007582863    -1.194001040470
H                     5.634092669074     2.629513924297    -1.829189956911
H                     5.866003406877     4.247222130167    -2.560718225149
H                     0.836807206450     1.827535283275     0.952440126510
H                     1.760930219025     0.484067377636     0.250814662302
H                     0.012802204337     0.637025806958    -0.085673652821
H                    -0.571028735573     2.174625938986    -2.204400735049
H                     0.512971439057     3.582581919568    -2.265058831720
H                    -0.393653847496     3.226704964204    -0.785084177021
