13   
torsion grid (-165,)
C       -0.0107750350    1.9169831949    1.1181984247
C       -1.9211827188   -0.7688979699   -0.7449806966
N       -1.2697368106    1.8738839922    1.3131209436
N       -1.2039041563   -0.6954892770    0.5414966843
O       -3.3416860644    0.4229905398    1.5343226109
O       -1.3221608960   -0.1272250263    2.9924607362
S       -1.9018403181    0.3038397211    1.7207665285
H        0.4285346782    2.8945590267    0.9084878834
H        0.6521257242    1.0453535608    1.1343267739
H       -2.9526985441   -1.1200473945   -0.6404707689
H       -1.9308514773    0.2212027405   -1.2058262819
H       -1.3616354729   -1.4440121499   -1.3966476183
H       -1.0515407252   -1.6045162552    0.9777914133
13   
torsion grid (-150,)
C       -0.0222916206    1.8997522483    1.0682704338
C       -1.8880700841   -0.7623654859   -0.7236066143
N       -1.2288125497    1.8695875384    1.4771751501
N       -1.2007621193   -0.6810146846    0.5777897001
O       -3.3451734665    0.4822736728    1.4815744102
O       -1.4321261478   -0.1773263718    3.0359794910
S       -1.9235382661    0.3077344704    1.7484768181
H        0.4412254547    2.8819291963    0.9550687663
H        0.5625233811    1.0105196803    0.8091329866
H       -2.9122908509   -1.1396945295   -0.6435243178
H       -1.9146824016    0.2302919894   -1.1782876932
H       -1.2979607140   -1.4177419199   -1.3686038491
H       -1.0253924313   -1.5853211006    1.0136013512
13   
torsion grid (-135,)
C       -0.0250414872    1.9019759866    1.0441209970
C       -1.8766026001   -0.7760805923   -0.7083434545
N       -1.1530574680    1.8468682957    1.6330162230
N       -1.1948913743   -0.6664856443    0.5939280311
O       -3.3185951370    0.5740339092    1.4037582874
O       -1.5472887299   -0.2420895128    3.0561192082
S       -1.9301052528    0.3147595769    1.7620238662
H        0.4715796779    2.8736289552    1.0089883856
H        0.4593909414    1.0411826569    0.5703541809
H       -2.8853940776   -1.1927733305   -0.6294718263
H       -1.9432265262    0.2132580732   -1.1653218844
H       -1.2600290371   -1.4095508180   -1.3507892252
H       -0.9840907452   -1.5601028524    1.0346638439
13   
torsion grid (-120,)
C       -0.0273534414    1.9165915333    1.0355757278
C       -1.8763151299   -0.8018978649   -0.6955142521
N       -1.0593092743    1.8065574972    1.7732013197
N       -1.1853434006   -0.6533087934    0.5982337672
O       -3.2694040582    0.6776995506    1.3190107692
O       -1.6633659571   -0.3029784307    3.0571886188
S       -1.9280711404    0.3227742019    1.7664324529
H        0.5069408140    2.8681846052    1.0646340778
H        0.3487385495    1.1155926417    0.3897939553
H       -2.8660723771   -1.2592306910   -0.6022310914
H       -1.9902513800    0.1788605228   -1.1603744050
H       -1.2409462857   -1.4166318344   -1.3381452867
H       -0.9365987349   -1.5335882350    1.0452409794
13   
torsion grid (-105,)
C        0.0730179676    1.8458474534    1.1292466095
C       -2.3470261895   -0.4227339421   -0.6875404199
N       -0.4904227613    1.2945684117    2.1286068583
N       -1.2183630555   -0.5541835809    0.2523700584
O       -2.8469072096    0.3885896276    1.9915417731
O       -0.9099134948   -1.1380594847    2.7035240385
S       -1.4753645337   -0.0908104460    1.8613386377
H        0.6644201857    2.7433804755    1.3206656640
H        0.0137920843    1.4605942663    0.1054520690
H       -3.1878131693   -1.0793162084   -0.4421478833
H       -2.7020005135    0.6082700106   -0.6851761535
H       -1.9710521419   -0.6599704076   -1.6862157681
H       -0.7897189847   -1.4775514720    0.2613811493
13   
torsion grid (-90,)
C        0.1024807299    1.8665172856    1.1689023068
C       -2.3708038294   -0.4866998398   -0.6882654895
N       -0.3405807528    1.1983724935    2.1576827846
N       -1.2116284292   -0.5174966433    0.2249551943
O       -2.7927659755    0.5627122220    1.9088866253
O       -1.0649059197   -1.1678728898    2.6931964494
S       -1.4751588112   -0.0613221297    1.8379055906
H        0.7715816572    2.7008076327    1.3887511214
H       -0.1225268908    1.6366672931    0.1217644102
H       -3.1431921598   -1.2178053885   -0.4271131126
H       -2.8148453067    0.5083787125   -0.6724529280
H       -1.9975981881   -0.6901857105   -1.6953654811
H       -0.7274079400   -1.4134483342    0.2341991614
13   
torsion grid (-75,)
C        0.1428994101    1.8889949075    1.2292525779
C       -2.4011512028   -0.5716824067   -0.6861744211
N       -0.1977490475    1.0862436612    2.1575476988
N       -1.2059176558   -0.4592392841    0.1755027114
O       -2.7287943454    0.7410527341    1.8180963880
O       -1.2415249707   -1.1699228305    2.6560400029
S       -1.4818223470   -0.0195268867    1.7945357285
H        0.9046927399    2.6340724314    1.4678765930
H       -0.2565939400    1.8632577953    0.2098106377
H       -3.0846210531   -1.3695479473   -0.3751116225
H       -2.9377573909    0.3764766675   -0.6751822705
H       -2.0495833408   -0.7682530223   -1.7021470460
H       -0.6494286720   -1.3133011159    0.1829996548
13   
torsion grid (-60,)
C        0.2002852100    1.9000559286    1.3029447692
C       -2.4340621366   -0.6776393410   -0.6786173522
N       -0.0697397882    0.9551511059    2.1148968602
N       -1.2142829803   -0.3778675914    0.1039356414
O       -2.6562522595    0.9426184372    1.7263402568
O       -1.4498968974   -1.1310725409    2.5907448383
S       -1.5024089722    0.0444234512    1.7300746212
H        1.0692019874    2.5209148719    1.5313078313
H       -0.3690993807    2.1254806815    0.3952431182
H       -2.9820020822   -1.5522069325   -0.3093884344
H       -3.0886064659    0.1933066617   -0.6539530396
H       -2.1203153766   -0.8547328249   -1.7101316030
H       -0.5701726739   -1.1698072038    0.1096491256
13   
torsion grid (-45,)
C       -0.1484328586    1.7736312369    0.8430541068
C       -2.0835943486   -0.3665047871   -0.6568220446
N       -0.0349942968    0.8249873992    1.6891844079
N       -1.7345772275   -1.0110563179    0.6087023907
O       -2.6104557760    0.8198965588    2.1521597937
O       -1.1167013864   -1.0545390626    3.0215534183
S       -1.4901287467   -0.1035331566    1.9894797323
H        0.7557450469    2.3336711179    0.5935697013
H       -1.0915798147    2.1088734040    0.3988692654
H       -2.4573201523   -1.1357221093   -1.3367582608
H       -2.8892558063    0.3470397706   -0.4754013706
H       -1.2351456340    0.1450475520   -1.1331323630
H       -1.0509108151   -1.7631669023    0.5585878557
13   
torsion grid (-30,)
C       -0.1473649311    1.8047626344    0.8727787552
C       -2.0860866345   -0.3990051946   -0.6590551300
N       -0.0024964117    0.7372846608    1.5580478247
N       -1.7627015232   -1.0485435380    0.6132588021
O       -2.5785904689    0.8680154668    2.0738281568
O       -1.1366342094   -1.0004343969    3.0398939111
S       -1.4854918408   -0.0961172032    1.9584707725
H        0.7592926839    2.3198634109    0.5478169893
H       -1.1152299582    2.2612436418    0.6375841673
H       -2.4123284353   -1.1711503521   -1.3593377332
H       -2.9161196633    0.2904798545   -0.4981657623
H       -1.2360332062    0.1431971720   -1.0978677872
H       -1.0675672173   -1.7909714530    0.5657936667
13   
torsion grid (-15,)
C       -0.1116943652    1.8635202429    0.9446120387
C       -2.1181716578   -0.4609947957   -0.6794091988
N        0.0135419538    0.6919411709    1.4356870424
N       -1.7809957640   -1.0810160008    0.6073852497
O       -2.5596941771    0.9077922292    1.9752791694
O       -1.1389586765   -0.9303718082    3.0334994780
S       -1.4804407728   -0.0777116843    1.9079245717
H        0.7942632222    2.3616550648    0.5929182373
H       -1.0637651958    2.4030007385    0.8886577277
H       -2.4334999799   -1.2535474803   -1.3614074480
H       -2.9584554567    0.2177033861   -0.5286478541
H       -1.2785870146    0.0865926440   -1.1293748777
H       -1.0708939318   -1.8099390036    0.5659224968
13   
torsion grid (0,)
C       -0.0656232443    1.9301084067    1.0344982482
C       -2.1584944512   -0.5348151012   -0.7075897278
N        0.0121662711    0.6858773504    1.3057955853
N       -1.8013822731   -1.1074088938    0.5980264781
O       -2.5521990603    0.9392466025    1.8815148029
O       -1.1132797010   -0.8496864434    3.0058313663
S       -1.4753506148   -0.0511483158    1.8461881066
H        0.8403195871    2.4254946334    0.6792758159
H       -0.9806688462    2.5212459317    1.1516815722
H       -2.4861012334   -1.3529156947   -1.3526160999
H       -2.9953768195    0.1503559622   -0.5687091219
H       -1.3258418710   -0.0063923916   -1.1899334359
H       -1.0855195595   -1.8313373431    0.5690830427
13   
torsion grid (15,)
C       -0.0169052020    1.9870466492    1.1263458769
C       -2.1978265282   -0.6090367445   -0.7353971133
N       -0.0104118179    0.7124280296    1.1701821221
N       -1.8217471929   -1.1276841681    0.5889192445
O       -2.5620455873    0.9642606661    1.7946245247
O       -1.0765802384   -0.7605514762    2.9655187940
S       -1.4762555873   -0.0166863048    1.7805828547
H        0.8876348945    2.4854777415    0.7718439986
H       -0.8762287938    2.6007726895    1.4181931576
H       -2.5369054344   -1.4534742555   -1.3393154290
H       -3.0313616966    0.0832280712   -0.6129393848
H       -1.3714660037   -0.1036428089   -1.2507673983
H       -1.0972526282   -1.8435133856    0.5752553853
13   
torsion grid (30,)
C        0.0294266168    2.0268640448    1.2082623448
C       -2.2306178130   -0.6767617616   -0.7594891184
N       -0.0591146537    0.7670855978    1.0321798230
N       -1.8402719413   -1.1399301681    0.5822276467
O       -2.5923542872    0.9833292857    1.7195690338
O       -1.0381955065   -0.6626446193    2.9195601689
S       -1.4876084931    0.0247695956    1.7166451068
H        0.9266948756    2.5272486200    0.8381378485
H       -0.7431565625    2.6340051155    1.6927503152
H       -2.5612730970   -1.5485450241   -1.3281872798
H       -3.0727747460    0.0085601716   -0.6587929868
H       -1.4130944879   -0.1804731670   -1.2966277277
H       -1.1050117205   -1.8448829876    0.5868114578
13   
torsion grid (45,)
C        0.0765108641    2.0494755493    1.2817382930
C       -2.2588679269   -0.7391320695   -0.7799694194
N       -0.1284902616    0.8480622881    0.9074488201
N       -1.8471395907   -1.1428786762    0.5746807497
O       -2.6405977838    0.9992080367    1.6458783753
O       -1.0163271493   -0.5554167973    2.8751302265
S       -1.5092366448    0.0738771778    1.6559520075
H        0.9536928239    2.5624159409    0.8816300551
H       -0.5759922071    2.6058393411    1.9636454345
H       -2.5699040485   -1.6397852286   -1.3137860996
H       -3.1182102112   -0.0728911797   -0.6979149378
H       -1.4576528373   -0.2406986842   -1.3388041380
H       -1.0951368430   -1.8294509951    0.5974172661
13   
torsion grid (60,)
C        0.1213369856    2.0553203636    1.3431375627
C       -2.2794324401   -0.7940463831   -0.7971746125
N       -0.2177093059    0.9513369472    0.8029478573
N       -1.8420934906   -1.1344154142    0.5669759188
O       -2.7055796594    1.0123910647    1.5759982375
O       -1.0160069316   -0.4394940253    2.8385918588
S       -1.5426744131    0.1293186880    1.6022445456
H        0.9601879118    2.5977964404    0.9016347280
H       -0.3709526061    2.5033053882    2.2133835202
H       -2.5608343506   -1.7240563726   -1.2959984671
H       -3.1625602583   -0.1578822095   -0.7297214349
H       -1.5016484733   -0.2844858957   -1.3779191887
H       -1.0693847846   -1.7964638882    0.6089461071
13   
torsion grid (75,)
C        0.1594758562    2.0452738546    1.3829771467
C       -2.2854277824   -0.8354555678   -0.8095733052
N       -0.3322112588    1.0709624617    0.7238123443
N       -1.8305533150   -1.1145837034    0.5628116958
O       -2.7873512787    1.0166538696    1.5283113787
O       -1.0327205672   -0.3284745830    2.8133620734
S       -1.5880423137    0.1863385095    1.5642956579
H        0.9412711168    2.6371011635    0.9019839376
H       -0.1387134879    2.3276433051    2.3986391378
H       -2.5324967442   -1.7914087933   -1.2765318847
H       -3.1922366166   -0.2320107224   -0.7573625044
H       -1.5306123517   -0.3133618269   -1.4083261407
H       -1.0377330731   -1.7500532638    0.6286470957
13   
torsion grid (90,)
C        0.1924541967    2.0203847666    1.4041459386
C       -2.2809160058   -0.8631560873   -0.8157431431
N       -0.4583974783    1.1972555334    0.6799058508
N       -1.8093027237   -1.0843637086    0.5613751309
O       -2.8807084650    1.0082064928    1.4943938929
O       -1.0639518384   -0.2268284094    2.8014986615
S       -1.6412317560    0.2420615480    1.5426937561
H        0.9208443625    2.6643730423    0.9067976987
H        0.0827694945    2.1130444765    2.4901479577
H       -2.4898651938   -1.8414729168   -1.2542465803
H       -3.2120101346   -0.2969985560   -0.7746409705
H       -1.5524749566   -0.3256343473   -1.4324991946
H       -0.9945613175   -1.6882471306    0.6492176341
13   
torsion grid (105,)
C        0.2154345247    1.9834714551    1.4063942530
C       -2.2639844800   -0.8761870988   -0.8165198198
N       -0.5900873019    1.3226091718    0.6712644229
N       -1.7775795508   -1.0476222548    0.5620109098
O       -2.9848126625    0.9748832879    1.4787737416
O       -1.1028821637   -0.1395099824    2.8028402421
S       -1.7003891299    0.2904222603    1.5385052702
H        0.9059279902    2.6677796961    0.9090307421
H        0.2656687531    1.8949916962    2.4970966313
H       -2.4567074092   -1.8704096648   -1.2259560804
H       -3.2063643332   -0.3285262571   -0.7826971328
H       -1.5534448359   -0.3400439984   -1.4545748271
H       -0.9381312170   -1.6132336077    0.6668782799
13   
torsion grid (120,)
C        0.2329305907    1.9273377000    1.3837877767
C       -2.2370888902   -0.8717041704   -0.8095219716
N       -0.7175142375    1.4329698905    0.6919482541
N       -1.7494076002   -1.0070320337    0.5725839107
O       -3.0906653767    0.9325893901    1.4737114309
O       -1.1579991028   -0.0647634469    2.8225728044
S       -1.7668103255    0.3331210395    1.5525415981
H        0.9048957320    2.6299531906    0.8865058477
H        0.4110114671    1.6857296614    2.4374247679
H       -2.3798903200   -1.8776476332   -1.2108885248
H       -3.2047294970   -0.3696913001   -0.7843328210
H       -1.5512388993   -0.3076806507   -1.4505824484
H       -0.8808453568   -1.5245569335    0.6872960082
13   
torsion grid (135,)
C        0.2402691832    1.8638345480    1.3454079457
C       -2.2027023517   -0.8572585275   -0.7979501675
N       -0.8330569765    1.5362934187    0.7393662271
N       -1.7212840094   -0.9637147957    0.5885590315
O       -3.1865451094    0.8858260926    1.4684421082
O       -1.2215748724   -0.0054045281    2.8534639496
S       -1.8316002009    0.3694222895    1.5768685232
H        0.9009752061    2.5779024934    0.8492297995
H        0.5233806750    1.4822903224    2.3328767958
H       -2.2959069732   -1.8704216433   -1.1959719630
H       -3.1925388624   -0.4002289428   -0.7831318430
H       -1.5388123976   -0.2654948141   -1.4374243375
H       -0.8279551270   -1.4344212096    0.7133105635
13   
torsion grid (150,)
C        0.0597456081    2.0735904195    1.3519714084
C       -2.0999246327   -0.8856061193   -0.8159028202
N       -1.0885310203    1.7545317422    0.8997730998
N       -1.2444101606   -0.7822711502    0.3807020498
O       -3.1950015334    0.4825808824    1.5419986088
O       -1.0473127205   -0.1102113064    2.7975093892
S       -1.7494673617    0.2936527873    1.5748511868
H        0.5272650265    2.9716336130    0.9437645636
H        0.5881262627    1.5148547503    2.1322987777
H       -3.1203222756   -1.2098740737   -0.5875809343
H       -2.1365998328    0.0872855197   -1.3087627371
H       -1.6259489875   -1.5980576794   -1.4951516947
H       -1.0549701883   -1.6734846822    0.8375757352
13   
torsion grid (165,)
C        0.0331157447    2.0113706501    1.2652543932
C       -2.0314565429   -0.8327472524   -0.7955322393
N       -1.1992673442    1.8063902098    1.0115484819
N       -1.2248196811   -0.7510039120    0.4373514849
O       -3.2606916306    0.4184131815    1.5672062114
O       -1.1201611628   -0.0969103443    2.8663693444
S       -1.8100002096    0.2937511487    1.6335910595
H        0.4761885577    2.9334159880    0.8835326434
H        0.6648746943    1.3358981298    1.8524229075
H       -3.0636637573   -1.1488832881   -0.6132317596
H       -2.0393905514    0.1459138011   -1.2789519296
H       -1.5371448296   -1.5424658875   -1.4630119351
H       -1.0749351034   -1.6545177213    0.8864979702
13   
torsion grid (180,)
C        0.0065390420    1.9539652568    1.1827926081
C       -1.9687793671   -0.7909471018   -0.7698625526
N       -1.2636275295    1.8497063712    1.1502240260
N       -1.2116191415   -0.7204031987    0.4944110485
O       -3.3120637530    0.3983412698    1.5666562407
O       -1.2138553092   -0.0993778648    2.9347154353
S       -1.8632544924    0.2979426606    1.6839567156
H        0.4382977283    2.9071603136    0.8703480358
H        0.6898516017    1.1613733093    1.5059950792
H       -3.0039359327   -1.1196377905   -0.6319402135
H       -1.9699959743    0.1950479800   -1.2390899071
H       -1.4426133235   -1.4844953462   -1.4299058003
H       -1.0722953648   -1.6300511559    0.9347459174
