41   
torsion grid (-165,)
C        3.7837076598    4.3501907669   -6.6230985308
C        3.3534617386    0.8022461839   -4.0517071201
C        2.8553265071   -0.2045650560   -3.2277793026
C        3.2252758122    5.2314514328   -5.6403619961
C        1.4682680008    1.4367720712   -2.1034954320
C        3.8252318707    3.0841702503   -6.0762643480
C        2.9137356155    2.1219618959   -3.9332589407
C        1.8989067989    0.1089130484   -2.2437584613
C        1.9717948316    2.4346796461   -2.9354388810
C        2.9759621715    4.4750639456   -4.5148774706
C        1.5960962832   -2.2286401720   -1.4363834874
C        3.4830702303   -0.3186259527    1.0980321788
C        2.4106621157    4.7505595719   -3.1640654574
C        0.5109506997   -0.5341886428   -0.2370335258
C        0.5743968544   -1.8280978724    0.5892778807
C        4.8128563338   -0.2479353156    0.3742257580
C        1.6018492963   -1.8050876807    1.7282664906
N        3.3437737853    3.1663002797   -4.7790625249
N        1.3863976279   -0.8659756662   -1.3592156870
N        2.9605563261   -1.5786475387    1.2568338139
O        2.2172104928   -2.8636038600   -2.2628393505
O        2.8947549195    0.6891892186    1.4920902132
O        1.4853040800    3.7072960315   -2.7738867941
O        0.9736125697   -2.8340304590   -0.3698913881
H        4.1089079540    4.6149720405   -7.6208573441
H        4.0947598763    0.5481859921   -4.8031872294
H        3.1948749148   -1.2229746035   -3.3494441209
H        3.0600714036    6.2967694050   -5.7393859136
H        0.7470788715    1.7343886597   -1.3524509793
H        4.1150456684    2.1384479645   -6.5097614333
H        3.1947186662    4.8066276222   -2.3953297861
H        1.8417777749    5.6804176892   -3.1548642787
H       -0.5055964578   -0.3183921704   -0.5882225369
H        0.8935946730    0.3164300691    0.3273791223
H       -0.4038212963   -2.1153103214    0.9814004734
H        4.6192868734    0.0466876997   -0.6627861163
H        5.4278376842    0.5265911812    0.8358196007
H        5.3559607777   -1.1969405716    0.3707468365
H        1.3487556478   -1.0121098234    2.4361030840
H        1.5687787899   -2.7641405898    2.2528650469
H        3.4362130487   -2.3556264964    0.8164228988
41   
torsion grid (-150,)
C        3.5617712483    4.3005806852   -6.6610486706
C        3.4805229640    0.8364591443   -4.0048829134
C        2.9650344492   -0.1832576609   -3.2089995788
C        3.0292907411    5.1858695525   -5.6649029866
C        1.5801537551    1.4472406744   -2.0692902449
C        3.8171234394    3.0928327191   -6.0515523110
C        3.0487016485    2.1576557440   -3.8700036373
C        1.9986428848    0.1189949106   -2.2308047855
C        2.1023019560    2.4605140167   -2.8734023305
C        3.0422747486    4.5016760766   -4.4703872500
C        1.6602081224   -2.2320363670   -1.4787538943
C        3.5182822916   -0.4013431944    1.1412091381
C        2.5281977482    4.7833755256   -3.1029727162
C        0.5733023342   -0.5526041666   -0.2599951644
C        0.6051561911   -1.8661943443    0.5367320127
C        4.8609437224   -0.3270171001    0.4419138770
C        1.6093817459   -1.8820081057    1.6963055872
N        3.5103892111    3.2128515100   -4.6983585737
N        1.4647889011   -0.8692214788   -1.3737686067
N        2.9795088945   -1.6592553764    1.2573844269
O        2.2885823554   -2.8552850281   -2.3086705450
O        2.9343413480    0.6022814640    1.5519763618
O        1.6269311635    3.7308945061   -2.6740124066
O        1.0122593302   -2.8543984635   -0.4374406772
H        3.7359673057    4.5289389671   -7.7048011444
H        4.2298145486    0.5911757880   -4.7514072700
H        3.2978383362   -1.2017219145   -3.3475120112
H        2.7373301724    6.2196276765   -5.8014154482
H        0.8539599021    1.7364298797   -1.3198152621
H        4.1529684468    2.1544276402   -6.4675228057
H        3.3373613648    4.8501105693   -2.3628489478
H        1.9485346926    5.7059322857   -3.0798281575
H       -0.4338251084   -0.3152522318   -0.6242243882
H        0.9560297554    0.2796734158    0.3311340891
H       -0.3840931422   -2.1507492580    0.9022729771
H        4.6879479035   -0.0068330760   -0.5911836940
H        5.4752033437    0.4305775183    0.9316569801
H        5.3949061804   -1.2810791477    0.4256469450
H        1.3506501802   -1.1034360484    2.4179323011
H        1.5554654729   -2.8529732911    2.1967432089
H        3.4539984855   -2.4293793006    0.8038241834
41   
torsion grid (-135,)
C        3.3537819590    4.1987390660   -6.6352083541
C        3.6054267275    0.8615018627   -3.9550680778
C        3.0741654951   -0.1705930860   -3.1869180105
C        2.8327170283    5.0865696073   -5.6308656103
C        1.6946078941    1.4472535539   -2.0249147627
C        3.8267869072    3.0818109622   -5.9932590585
C        3.1821945506    2.1837607054   -3.8008788727
C        2.1006618942    0.1197334090   -2.2118281434
C        2.2349481709    2.4743946338   -2.8016940296
C        3.1053257635    4.5149838439   -4.4119367303
C        1.7343965622   -2.2437812671   -1.5123433422
C        3.5590989842   -0.4807415773    1.1798854935
C        2.6430827210    4.8059263332   -3.0295986516
C        0.6406582525   -0.5810950565   -0.2773085161
C        0.6475191946   -1.9112822084    0.4920831512
C        4.9119212303   -0.3981898355    0.5013289152
C        1.6306506315   -1.9594702870    1.6687341598
N        3.6763862580    3.2540256803   -4.6092640119
N        1.5478328054   -0.8821035076   -1.3826047359
N        3.0097486398   -1.7371068531    1.2586513305
O        2.3719892985   -2.8551102286   -2.3441992739
O        2.9759675352    0.5166929996    1.6064067028
O        1.7748148539    3.7417745494   -2.5574068312
O        1.0642875573   -2.8824275854   -0.4950043889
H        3.3770239014    4.3709324493   -7.7040548430
H        4.3611559319    0.6244438415   -4.6976212959
H        3.4000728179   -1.1885462108   -3.3441438617
H        2.4046866230    6.0688341410   -5.7897906488
H        0.9666730925    1.7280898614   -1.2739298818
H        4.2213990929    2.1613449559   -6.3977695228
H        3.4782998323    4.8923786234   -2.3225181816
H        2.0469432339    5.7173664664   -2.9933122124
H       -0.3579288582   -0.3264986732   -0.6532526852
H        1.0204908863    0.2349638632    0.3378016936
H       -0.3503890971   -2.1951378430    0.8339151702
H        4.7549528674   -0.0545929684   -0.5268233762
H        5.5231579266    0.3451816786    1.0159989466
H        5.4410894343   -1.3545938794    0.4714547596
H        1.3646823507   -1.1947492473    2.4024266432
H        1.5610686016   -2.9406233607    2.1469029030
H        3.4852605426   -2.4995148785    0.7932656756
41   
torsion grid (-120,)
C        3.1736310018    4.0277153201   -6.6246719466
C        3.6784498549    0.8880250903   -3.9319959964
C        3.1206953456   -0.1444107588   -3.1840356889
C        2.6383731590    4.9271255233   -5.6319733958
C        1.7453067753    1.4807224132   -2.0309531821
C        3.8511622918    3.0428326260   -5.9608232320
C        3.2685836971    2.2149867753   -3.7772649993
C        2.1336293168    0.1499592196   -2.2239907119
C        2.3141186438    2.5104816481   -2.7859863014
C        3.1358223342    4.5208596199   -4.4214919904
C        1.7217277471   -2.2146594894   -1.5554036442
C        3.5224775412   -0.4989172545    1.1895986726
C        2.7154938295    4.8449303973   -3.0337224624
C        0.6307982505   -0.5490227735   -0.3217859957
C        0.6056549448   -1.8867824931    0.4340545782
C        4.8850693742   -0.4258614674    0.5298365655
C        1.5674548731   -1.9596345656    1.6269407607
N        3.8113742040    3.2926876775   -4.5677126730
N        1.5512853826   -0.8522704979   -1.4152147073
N        2.9559005430   -1.7491583502    1.2428280584
O        2.3648679336   -2.8271457811   -2.3822451795
O        2.9470248737    0.5002571503    1.6223656859
O        1.8755510746    3.7794071909   -2.5121738374
O        1.0263357431   -2.8539514596   -0.5553240341
H        3.0669250482    4.1101742117   -7.6994608512
H        4.4459386909    0.6460308689   -4.6604360718
H        3.4363816267   -1.1648911581   -3.3458194674
H        2.0747187988    5.8343665916   -5.8148461131
H        1.0112649878    1.7651535734   -1.2873116037
H        4.3215464263    2.1498191126   -6.3455736390
H        3.5717839345    4.9567778999   -2.3574894493
H        2.1063757826    5.7478307542   -2.9981423134
H       -0.3576645852   -0.2755698836   -0.7110592967
H        1.0122400998    0.2552266243    0.3077273035
H       -0.4019186656   -2.1600559776    0.7556091499
H        4.7460270612   -0.0681073629   -0.4960809958
H        5.4989742059    0.3033149927    1.0613346924
H        5.4021304658   -1.3887334301    0.4953140327
H        1.2982074053   -1.1993646196    2.3640123213
H        1.4779366487   -2.9448459317    2.0933644955
H        3.4276428503   -2.5100816187    0.7711524887
41   
torsion grid (-105,)
C        3.0804978235    3.8311138227   -6.5541754377
C        3.7375614133    0.9393117804   -3.9093542395
C        3.1632544164   -0.1000813384   -3.1837563230
C        2.4555995095    4.7120151047   -5.5887132959
C        1.8138307644    1.5191820936   -1.9974805752
C        3.9590917269    3.0432927829   -5.8742007669
C        3.3499880026    2.2705561066   -3.7292089754
C        2.1806496815    0.1875407209   -2.2178544243
C        2.4026865991    2.5565012514   -2.7279688546
C        3.1177783500    4.5300049643   -4.4079737217
C        1.7263781320   -2.1843441846   -1.6041011972
C        3.5533536645   -0.5633213595    1.1837433906
C        2.7387658005    4.9061180461   -3.0211436800
C        0.6652018495   -0.5285316867   -0.3322793954
C        0.6149976638   -1.8828503960    0.3922075745
C        4.9153711299   -0.4959323859    0.5223427379
C        1.5745969607   -2.0014043603    1.5831279506
N        3.9442628448    3.3706505817   -4.4810899616
N        1.5802504954   -0.8230623982   -1.4325032408
N        2.9664603901   -1.8052463038    1.2042105270
O        2.3592780483   -2.7894977353   -2.4442318240
O        2.9957996175    0.4330688747    1.6453175001
O        1.9901811322    3.8218130728   -2.4069678690
O        1.0184643194   -2.8342075659   -0.6193367504
H        2.8926468916    3.8020721797   -7.6208004016
H        4.5017511924    0.6959896764   -4.6397868116
H        3.4629884341   -1.1212999282   -3.3694115101
H        1.7338894325    5.4928766061   -5.8000988586
H        1.0838854585    1.8003637246   -1.2485269464
H        4.5624568618    2.2227182022   -6.2344995641
H        3.6189875100    5.1037925505   -2.3989213640
H        2.0765039117    5.7717848852   -2.9979477443
H       -0.3179560259   -0.2278763997   -0.7149686422
H        1.0610369368    0.2538797352    0.3156543615
H       -0.3976018935   -2.1450064328    0.7072576146
H        4.7798646474   -0.1087995546   -0.4933345792
H        5.5428765339    0.2084044074    1.0711549844
H        5.4157737723   -1.4662612984    0.4608440314
H        1.3181750995   -1.2550745238    2.3387890293
H        1.4679018377   -2.9962148335    2.0249614248
H        3.4244589355   -2.5607194398    0.7106823686
41   
torsion grid (-90,)
C        2.9848968138    3.6179918033   -6.4631168914
C        3.7930454111    0.9766678068   -3.9094477413
C        3.2027858756   -0.0660075523   -3.2004992613
C        2.3114352659    4.4830898704   -5.5061708928
C        1.8745041438    1.5530592502   -1.9908772924
C        4.0253107363    3.0326574696   -5.8138493109
C        3.4213146468    2.3101780682   -3.7132960702
C        2.2221800332    0.2200920903   -2.2327448552
C        2.4833993723    2.5932864882   -2.7013085415
C        3.1183908165    4.5368245227   -4.4076462479
C        1.7286409105   -2.1549285378   -1.6580375265
C        3.5697508967   -0.5995271827    1.1639748942
C        2.7676246216    4.9578725671   -3.0249140796
C        0.6915816702   -0.5024410183   -0.3627145829
C        0.6175916792   -1.8667875461    0.3405416830
C        4.9334119956   -0.5342794972    0.5057673401
C        1.5720422784   -2.0185403364    1.5317711350
N        4.0524256361    3.4378869382   -4.4220541522
N        1.6043043903   -0.7943155865   -1.4655803606
N        2.9673860909   -1.8343755090    1.1597890124
O        2.3532567564   -2.7579788595   -2.5058946944
O        3.0231735713    0.3939576801    1.6444227478
O        2.1041117085    3.8575060790   -2.3389129725
O        1.0084902397   -2.8086692927   -0.6845936534
H        2.7127605663    3.4659198652   -7.5009302356
H        4.5570012273    0.7308388558   -4.6383633486
H        3.4892395855   -1.0880075907   -3.4019816933
H        1.4637597173    5.1284487605   -5.7088431616
H        1.1498769534    1.8329168478   -1.2362301776
H        4.7216893068    2.2885337576   -6.1731087671
H        3.6573631272    5.2290599613   -2.4472305684
H        2.0570549526    5.7852128891   -3.0095393944
H       -0.2856154017   -0.1795976026   -0.7426253018
H        1.0983952789    0.2631725186    0.2983551346
H       -0.3998838505   -2.1177484752    0.6489666767
H        4.8036494080   -0.1260368527   -0.5023682632
H        5.5678487535    0.1523948004    1.0688179872
H        5.4231465429   -1.5087280806    0.4261303895
H        1.3237669986   -1.2814089537    2.2990789916
H        1.4505678501   -3.0190444696    1.9566586015
H        3.4161159342   -2.5857430788    0.6516933486
41   
torsion grid (90,)
C        4.9548143587    3.7035806746   -4.9356627081
C        2.8140759956    0.6510491511   -4.5012268182
C        2.4461857830   -0.2837558695   -3.5370698857
C        4.0175095621    4.5827046563   -4.2521746337
C        1.2423768901    1.4521569307   -2.3611837951
C        4.2212006283    2.8005779721   -5.6380281603
C        2.4515210025    1.9976469907   -4.4035013357
C        1.6637542490    0.1209729158   -2.4400336250
C        1.6077587334    2.3797002855   -3.3424017466
C        2.7859702590    4.2960237628   -4.7633984008
C        1.5286280208   -2.1293762054   -1.3795740507
C        3.8267251297    0.0614786540    0.5597253563
C        1.4497855135    4.6232874127   -4.1997332754
C        0.6674378202   -0.3223562110   -0.1643404600
C        0.9144952152   -1.5264345346    0.7577157784
C        4.9755961106    0.0888088331   -0.4284932244
C        2.1455197967   -1.3893768413    1.6625969233
N        2.8045084783    3.0092581440   -5.4147089433
N        1.3123886258   -0.7671273182   -1.3977602334
N        3.3764998885   -1.1879531836    0.9115946344
O        1.9913059942   -2.8455999024   -2.2429861372
O        3.3108728756    1.0908024341    0.9968648789
O        1.0930042907    3.6382594092   -3.1871593931
O        1.1353067048   -2.6245479206   -0.1572460284
H        6.0364985858    3.7567597449   -4.8973069498
H        3.4061698611    0.3107049491   -5.3431784844
H        2.7522707760   -1.3149585060   -3.6380884467
H        4.2708448815    5.4382460846   -3.6358963532
H        0.6216231871    1.8132873185   -1.5504080754
H        4.5568869393    1.9585571695   -6.2263906906
H        1.4407135914    5.5870413831   -3.6888861381
H        0.6723103055    4.6107612579   -4.9706660273
H       -0.4019853009   -0.1409697073   -0.3277690394
H        1.1367368436    0.5813183984    0.2253519950
H        0.0380684786   -1.7714445821    1.3619622021
H        4.5649834454    0.3068486232   -1.4201730827
H        5.6561367734    0.8985831317   -0.1594683330
H        5.5260733278   -0.8546907544   -0.4792677877
H        2.0146605920   -0.5387614841    2.3357013517
H        2.2448065827   -2.2979990269    2.2633432632
H        3.7682989668   -1.9909245795    0.4364556140
41   
torsion grid (105,)
C        4.9876646614    3.9209139694   -5.1395875232
C        2.8369116382    0.6474173610   -4.4638920642
C        2.4520787729   -0.2852023196   -3.5053364028
C        4.0228738232    4.8046830826   -4.5174840535
C        1.2856945079    1.4697382046   -2.3178847918
C        4.3004616328    2.8505649113   -5.6270905395
C        2.4992951362    2.0001940441   -4.3597150986
C        1.6774645590    0.1300460955   -2.4058226620
C        1.6729137872    2.3964496819   -3.2912967372
C        2.7868572932    4.3076128253   -4.8177194624
C        1.4711075722   -2.1270992466   -1.3691532532
C        3.8222382253   -0.0362759117    0.6234786533
C        1.4582528371    4.5928495210   -4.2169073786
C        0.6605879784   -0.3067327319   -0.1390663089
C        0.8585017211   -1.5294633775    0.7703821584
C        4.9844547749   -0.0339123804   -0.3493017465
C        2.0832162667   -1.4446383759    1.6898963722
N        2.9031386539    2.9910652835   -5.3516796084
N        1.3018991303   -0.7577058219   -1.3721079609
N        3.3282803741   -1.2747506237    0.9547813703
O        1.9145442526   -2.8484534591   -2.2383074752
O        3.3326461725    1.0035205567    1.0658697445
O        1.2078558188    3.6724871961   -3.1195036774
O        1.0527791420   -2.6230636833   -0.1559175839
H        6.0571014557    4.0786734642   -5.2129072144
H        3.4230268018    0.3040528732   -5.3096540672
H        2.7353304507   -1.3222986243   -3.6124322350
H        4.2284305817    5.7672277120   -4.0632130148
H        0.6744398201    1.8391167423   -1.5035247877
H        4.6751881759    1.9529140130   -6.0972201156
H        1.4115998763    5.5911487514   -3.7812953259
H        0.6497635861    4.4755920915   -4.9475156986
H       -0.4007887186   -0.0883152146   -0.3098678889
H        1.1557642446    0.5763053688    0.2657344733
H       -0.0320909990   -1.7528134179    1.3621925388
H        4.5938512119    0.2061436691   -1.3439878574
H        5.6852253013    0.7525276840   -0.0636479669
H        5.5070299890   -0.9930192612   -0.4024594144
H        1.9728629921   -0.5986292746    2.3724413126
H        2.1456715980   -2.3634524507    2.2799810538
H        3.7017652851   -2.0849402631    0.4772425880
41   
torsion grid (120,)
C        4.9569522281    4.1260287233   -5.3358128325
C        2.8625785017    0.6412954583   -4.4303018885
C        2.4611781600   -0.2931318353   -3.4804768439
C        3.9441658147    4.9971256078   -4.7914054653
C        1.3252493216    1.4728631252   -2.2747548392
C        4.3657845723    2.9188933946   -5.5876090498
C        2.5458579765    1.9970690609   -4.3108696175
C        1.6935325129    0.1265205300   -2.3771598541
C        1.7320002819    2.4022649376   -3.2364564049
C        2.7563341308    4.3187021023   -4.8691872797
C        1.4382649791   -2.1386173740   -1.3710492245
C        3.8199766468   -0.1297950391    0.6670065775
C        1.4467755949    4.5585782784   -4.2104279301
C        0.6588757687   -0.3186388887   -0.1194899680
C        0.8247446846   -1.5585346790    0.7731342374
C        4.9919249628   -0.1395933117   -0.2939610900
C        2.0439967562   -1.5136080915    1.7024637582
N        2.9897476867    2.9859880361   -5.2623399348
N        1.2968778345   -0.7658369364   -1.3557565980
N        3.2981926523   -1.3618432943    0.9791801847
O        1.8716533085   -2.8561751450   -2.2483228308
O        3.3464765859    0.9143057080    1.1165531433
O        1.3103960365    3.6927805795   -3.0508533118
O        1.0025340439   -2.6425788619   -0.1677108947
H        5.9952242886    4.3744230919   -5.5193364201
H        3.4446437286    0.3008121363   -5.2808800334
H        2.7239881342   -1.3346252440   -3.5968543068
H        4.0647422492    6.0367376186   -4.5107108409
H        0.7203804921    1.8438767197   -1.4564061835
H        4.8058528711    1.9920696581   -5.9255243400
H        1.3680096883    5.5772028278   -3.8312133824
H        0.6038540365    4.3543769391   -4.8820867209
H       -0.3965773008   -0.0749557488   -0.2928086768
H        1.1708558383    0.5473765987    0.3008786948
H       -0.0746449649   -1.7714153349    1.3554081775
H        4.6165388772    0.1197511090   -1.2896608746
H        5.7051600747    0.6294144396    0.0077862396
H        5.4958654266   -1.1082642412   -0.3530236910
H        1.9471242892   -0.6748055239    2.3958745942
H        2.0814072556   -2.4415326593    2.2802645778
H        3.6588787865   -2.1740629714    0.4952798998
41   
torsion grid (135,)
C        4.9199532655    4.2129207784   -5.6228943084
C        2.9251716041    0.6332107838   -4.3717070251
C        2.5021430641   -0.2987738726   -3.4285546345
C        3.9053685241    5.0760414791   -5.0816352079
C        1.3654656575    1.4761721046   -2.2341334096
C        4.4096682237    2.9395060700   -5.6440263295
C        2.6133922087    1.9904423983   -4.2557258247
C        1.7219374551    0.1256239139   -2.3359461102
C        1.7953367347    2.4018645437   -3.1873319411
C        2.7840882871    4.3067062632   -4.8893310934
C        1.4185213837   -2.1407130422   -1.3464116692
C        3.8010504532   -0.1966040197    0.7366357610
C        1.4897837871    4.5307321325   -4.1943775373
C        0.6473220230   -0.3158987173   -0.0965152268
C        0.7775277775   -1.5640339604    0.7905425398
C        4.9914470396   -0.2298173974   -0.2008131308
C        1.9811401017   -1.5459942002    1.7411085502
N        3.0856008511    2.9711982276   -5.1841001494
N        1.3007964029   -0.7654353218   -1.3238443800
N        3.2507723430   -1.4182121816    1.0405288308
O        1.8544835051   -2.8593732326   -2.2213756948
O        3.3380020027    0.8569136266    1.1749095126
O        1.4071692636    3.7026857971   -3.0053848168
O        0.9535698265   -2.6448110946   -0.1543883903
H        5.9061015184    4.5050570591   -5.9615899704
H        3.5195782428    0.2914013328   -5.2134629495
H        2.7574835325   -1.3424712818   -3.5420547412
H        3.9681009384    6.1495780915   -4.9510894462
H        0.7557896004    1.8517606029   -1.4214722469
H        4.8823342629    2.0049137110   -5.9084375448
H        1.3940138228    5.5602134676   -3.8500248339
H        0.6327326753    4.2828369260   -4.8340878229
H       -0.4009765009   -0.0549081593   -0.2874049347
H        1.1652860861    0.5391726461    0.3386561692
H       -0.1352798830   -1.7654583561    1.3557396121
H        4.6413002102    0.0382104106   -1.2033706287
H        5.7141872427    0.5241611246    0.1159049588
H        5.4765749428   -1.2085153115   -0.2511676785
H        1.8887811029   -0.7073763791    2.4353924273
H        1.9898480147   -2.4760218343    2.3166155938
H        3.6058868056   -2.2379332677    0.5652855466
41   
torsion grid (150,)
C        4.8232431338    4.3310913616   -5.8339950559
C        2.9959776956    0.6671367844   -4.3149945197
C        2.5485768971   -0.2774175755   -3.3948257678
C        3.7897673973    5.1709606298   -5.2994938240
C        1.3950957288    1.4829456172   -2.1920382324
C        4.4358097700    3.0231772229   -5.6473565896
C        2.6825091259    2.0214864861   -4.1819216647
C        1.7481391614    0.1314992834   -2.3113136271
C        1.8500494649    2.4203361201   -3.1194685544
C        2.7811136422    4.3400803991   -4.8661612871
C        1.4125760401   -2.1505889907   -1.3688966390
C        3.7740629098   -0.2810834441    0.7734000651
C        1.5116198800    4.5471661460   -4.1187566430
C        0.6280593247   -0.3435755792   -0.1013020865
C        0.7343664209   -1.6083505993    0.7649936791
C        4.9827855042   -0.3221244076   -0.1399657850
C        1.9215600184   -1.6169190773    1.7364167852
N        3.1725126334    3.0209944911   -5.0615146613
N        1.3018270626   -0.7750356769   -1.3242956086
N        3.2048877505   -1.4982371218    1.0596260805
O        1.8628966925   -2.8559733645   -2.2473347394
O        3.3133657693    0.7750140580    1.2078311778
O        1.4853306129    3.7270408581   -2.9230168587
O        0.9194701700   -2.6729595439   -0.1963275879
H        5.7438963750    4.6549724149   -6.3024196310
H        3.6075481557    0.3383120884   -5.1497276597
H        2.8014079575   -1.3203913205   -3.5199442423
H        3.7653741822    6.2535242556   -5.2985216485
H        0.7732519372    1.8473243770   -1.3835313150
H        4.9609189624    2.1006402973   -5.8464014001
H        1.4160446841    5.5784894270   -3.7797109313
H        0.6308663498    4.2853111953   -4.7213174903
H       -0.4149529057   -0.0728011411   -0.3069593565
H        1.1434740970    0.4998779709    0.3588046266
H       -0.1894730952   -1.8134265596    1.3105758748
H        4.6554068441   -0.0475255064   -1.1484200979
H        5.7057174811    0.4241901171    0.1939404899
H        5.4599123869   -1.3050468943   -0.1839240876
H        1.8277233120   -0.7855927714    2.4392718986
H        1.9083179840   -2.5537493122    2.3006340205
H        3.5609948987   -2.3193913605    0.5876578894
41   
torsion grid (165,)
C        4.7074068292    4.3531848071   -6.0975965772
C        3.0683195614    0.6941780233   -4.2715110411
C        2.5966957447   -0.2565076031   -3.3690695753
C        3.6852413506    5.1875455879   -5.5381354636
C        1.4625335981    1.5076642126   -2.1479719854
C        4.4434094367    3.0532168030   -5.7175565706
C        2.7716738873    2.0501927391   -4.1207398519
C        1.7929764264    0.1510314827   -2.2877504807
C        1.9428441394    2.4494442979   -3.0554072891
C        2.8167100643    4.3595838395   -4.8590386254
C        1.4060298224   -2.1399689117   -1.3890354573
C        3.7416962890   -0.3294250739    0.8574371792
C        1.5772877435    4.5614817974   -4.0576561726
C        0.6238605925   -0.3419552190   -0.1068489222
C        0.6896366575   -1.6232556294    0.7392624411
C        4.9738156917   -0.3585740709   -0.0245936720
C        1.8520633503   -1.6666560831    1.7390275478
N        3.2769197832    3.0579024073   -4.9691961058
N        1.3170532710   -0.7634787916   -1.3224845599
N        3.1530675550   -1.5472081529    1.0970630814
O        1.8618334671   -2.8371137532   -2.2711699447
O        3.2788984918    0.7197619682    1.3062832807
O        1.6179536584    3.7665367626   -2.8474570097
O        0.8815050127   -2.6741145480   -0.2357990026
H        5.5448895616    4.6729014133   -6.7040291701
H        3.6819448181    0.3686077483   -5.1059924302
H        2.8322915683   -1.3019303201   -3.5072709398
H        3.5864854248    6.2600333715   -5.6477548012
H        0.8409168592    1.8700812204   -1.3384398057
H        5.0004680218    2.1431710235   -5.8845822277
H        1.4738743346    5.5983428828   -3.7376958118
H        0.6770371691    4.2710986310   -4.6184085498
H       -0.4096494871   -0.0499580432   -0.3306566828
H        1.1423278790    0.4844908180    0.3798001265
H       -0.2504115471   -1.8229523421    1.2585432263
H        4.6763589372   -0.0524170630   -1.0332409691
H        5.6954412636    0.3700172898    0.3489772907
H        5.4417247916   -1.3451061051   -0.0835913378
H        1.7495938953   -0.8493223024    2.4569189100
H        1.8147552203   -2.6149387379    2.2826372577
H        3.5135311625   -2.3608048119    0.6154660050
41   
torsion grid (180,)
C        3.9686816447    4.3541477259   -6.5475622917
C        3.2312657633    0.7594432973   -4.1170161084
C        2.7610242941   -0.2386692782   -3.2653408954
C        3.3993499329    5.2306368922   -5.5677348262
C        1.3800298208    1.4047567696   -2.1372242493
C        3.8123484236    3.0588848058   -6.0961268899
C        2.7817542684    2.0761169051   -4.0063784121
C        1.8231337981    0.0788269610   -2.2652932538
C        1.8544741453    2.3916929630   -2.9966629629
C        2.9110694199    4.4369307936   -4.5505553800
C        1.5798742624   -2.2464259636   -1.4027582025
C        3.4808845080   -0.2346497701    1.0370005348
C        2.3025066779    4.7020255064   -3.2132617915
C        0.4846951106   -0.5473272333   -0.2196229350
C        0.5952484082   -1.8190849062    0.6353775680
C        4.7927594203   -0.1523855404    0.2824154208
C        1.6485721705   -1.7461413758    1.7484235587
N        3.1718591877    3.1162919961   -4.8709225499
N        1.3424968705   -0.8870165982   -1.3531936985
N        2.9905419261   -1.5013000844    1.2395021603
O        2.1968179079   -2.8878598784   -2.2273760254
O        2.8782013166    0.7697122405    1.4181031683
O        1.3601098236    3.6650487790   -2.8583053283
O        0.9934610175   -2.8391921121   -0.3090540442
H        4.4237873184    4.6411258776   -7.4865672956
H        3.9589754894    0.5006957228   -4.8798718311
H        3.1098334476   -1.2550195622   -3.3776114430
H        3.3532439609    6.3114020547   -5.6089598322
H        0.6719452379    1.7073214444   -1.3758106961
H        4.0579505788    2.1150001589   -6.5599297558
H        3.0665439498    4.7492210805   -2.4231763456
H        1.7404458289    5.6365798135   -3.2110278358
H       -0.5437410859   -0.3619353614   -0.5530435306
H        0.8606758440    0.3242706298    0.3163686613
H       -0.3669708670   -2.1172594282    1.0577126962
H        4.5702608132    0.1130920193   -0.7566412568
H        5.4002123718    0.6461601186    0.7119734788
H        5.3567383279   -1.0891014610    0.2890961998
H        1.3942025697   -0.9421853357    2.4433371979
H        1.6495570945   -2.6927856325    2.2960722239
H        3.4744996368   -2.2788111694    0.8092209520
