
  -OEChem-12102412493D

 44 47  0     1  0  0  0  0  0999 V2000
    1.0178    4.2983   -6.3707 N   0  0  0  0  0  0  0  0  0  0  0  0
    2.3857    3.7511   -5.8888 S   0  0  1  0  0  0  0  0  0  0  0  0
    2.4317    2.2869   -5.7189 O   0  0  0  0  0  0  0  0  0  0  0  0
    3.7634    4.2275   -6.9851 C   0  0  0  0  0  0  0  0  0  0  0  0
    4.6949    3.8086   -6.5992 H   0  0  0  0  0  0  0  0  0  0  0  0
    3.5251    3.7964   -7.9592 H   0  0  0  0  0  0  0  0  0  0  0  0
    3.8199    5.3165   -7.0552 H   0  0  0  0  0  0  0  0  0  0  0  0
    2.9255    4.5043   -4.3045 C   0  0  0  0  0  0  0  0  0  0  0  0
    1.9656    4.0830   -3.1932 C   0  0  0  0  0  0  0  0  0  0  0  0
    2.2876    4.7644   -1.8744 C   0  0  0  0  0  0  0  0  0  0  0  0
    3.6218    4.3573   -1.4893 O   0  0  0  0  0  0  0  0  0  0  0  0
    4.1048    4.8640   -0.3333 C   0  0  0  0  0  0  0  0  0  0  0  0
    3.3616    5.7063    0.3428 N   0  0  0  0  0  0  0  0  0  0  0  0
    3.9245    6.1617    1.4901 N   0  0  0  0  0  0  0  0  0  0  0  0
    5.1983    5.8366    1.9664 C   0  0  0  0  0  0  0  0  0  0  0  0
    5.4615    6.4863    3.1067 N   0  0  0  0  0  0  0  0  0  0  0  0
    4.3531    7.2266    3.3604 C   0  0  0  0  0  0  0  0  0  0  0  0
    4.2739    7.8458    4.2455 H   0  0  0  0  0  0  0  0  0  0  0  0
    3.3680    7.0578    2.3786 C   0  0  0  0  0  0  0  0  0  0  0  0
    2.0691    7.6729    2.2573 C   0  0  0  0  0  0  0  0  0  0  0  0
    1.6081    8.8714    2.7357 C   0  0  0  0  0  0  0  0  0  0  0  0
    2.1995    9.6119    3.2578 H   0  0  0  0  0  0  0  0  0  0  0  0
    0.2157    8.9501    2.3741 C   0  0  0  0  0  0  0  0  0  0  0  0
   -0.8167    9.8896    2.5463 C   0  0  0  0  0  0  0  0  0  0  0  0
   -0.6409   10.8212    3.0775 H   0  0  0  0  0  0  0  0  0  0  0  0
   -2.0739    9.5960    2.0190 C   0  0  0  0  0  0  0  0  0  0  0  0
   -2.8862   10.3072    2.1423 H   0  0  0  0  0  0  0  0  0  0  0  0
   -2.3172    8.3910    1.3269 C   0  0  0  0  0  0  0  0  0  0  0  0
   -3.3096    8.1937    0.9313 H   0  0  0  0  0  0  0  0  0  0  0  0
   -1.3052    7.4442    1.1412 C   0  0  0  0  0  0  0  0  0  0  0  0
   -1.4776    6.5122    0.6116 H   0  0  0  0  0  0  0  0  0  0  0  0
   -0.0603    7.7558    1.6758 C   0  0  0  0  0  0  0  0  0  0  0  0
    1.0662    6.9735    1.6064 O   0  0  0  0  0  0  0  0  0  0  0  0
    5.9591    4.9226    1.2037 C   0  0  0  0  0  0  0  0  0  0  0  0
    6.9476    4.6430    1.5523 H   0  0  0  0  0  0  0  0  0  0  0  0
    5.4153    4.4254    0.0480 C   0  0  0  0  0  0  0  0  0  0  0  0
    5.9345    3.7164   -0.5869 H   0  0  0  0  0  0  0  0  0  0  0  0
    1.5843    4.4679   -1.0907 H   0  0  0  0  0  0  0  0  0  0  0  0
    2.2563    5.8560   -1.9552 H   0  0  0  0  0  0  0  0  0  0  0  0
    2.0047    2.9973   -3.0701 H   0  0  0  0  0  0  0  0  0  0  0  0
    0.9391    4.3452   -3.4703 H   0  0  0  0  0  0  0  0  0  0  0  0
    3.9434    4.1609   -4.1045 H   0  0  0  0  0  0  0  0  0  0  0  0
    2.9288    5.5905   -4.4493 H   0  0  0  0  0  0  0  0  0  0  0  0
    1.0475    5.3100   -6.5153 H   0  0  0  0  0  0  0  0  0  0  0  0
  1  2  2  0  0  0  0
  1 44  1  0  0  0  0
  2  3  2  0  0  0  0
  2  4  1  0  0  0  0
  2  8  1  0  0  0  0
  4  5  1  0  0  0  0
  4  6  1  0  0  0  0
  4  7  1  0  0  0  0
  8  9  1  0  0  0  0
  8 42  1  0  0  0  0
  8 43  1  0  0  0  0
  9 10  1  0  0  0  0
  9 40  1  0  0  0  0
  9 41  1  0  0  0  0
 10 11  1  0  0  0  0
 10 38  1  0  0  0  0
 10 39  1  0  0  0  0
 11 12  1  0  0  0  0
 12 13  2  0  0  0  0
 12 36  1  0  0  0  0
 13 14  1  0  0  0  0
 14 15  1  0  0  0  0
 14 19  1  0  0  0  0
 15 16  2  0  0  0  0
 15 34  1  0  0  0  0
 16 17  1  0  0  0  0
 17 18  1  0  0  0  0
 17 19  2  0  0  0  0
 19 20  1  0  0  0  0
 20 21  2  0  0  0  0
 20 33  1  0  0  0  0
 21 22  1  0  0  0  0
 21 23  1  0  0  0  0
 23 24  1  0  0  0  0
 23 32  2  0  0  0  0
 24 25  1  0  0  0  0
 24 26  2  0  0  0  0
 26 27  1  0  0  0  0
 26 28  1  0  0  0  0
 28 29  1  0  0  0  0
 28 30  2  0  0  0  0
 30 31  1  0  0  0  0
 30 32  1  0  0  0  0
 32 33  1  0  0  0  0
 34 35  1  0  0  0  0
 34 36  2  0  0  0  0
 36 37  1  0  0  0  0
M  END
$$$$
