44
0 1 C18H18N4O3S
N                     3.071063384168     4.238912296383    -6.952068007642
S                     2.266452980832     3.638782878304    -5.773967392950
O                     0.808635097655     3.853192810273    -5.852130761711
C                     2.539730099163     1.843228276879    -5.586206730059
H                     1.921507895288     1.452198486876    -4.776486136484
H                     2.233585535564     1.407601431851    -6.539145145705
H                     3.599508414666     1.649085615115    -5.403868831800
C                     2.831265805093     4.280647158879    -4.151196792127
C                     1.977916116863     3.813379940574    -2.973429596121
C                     2.303947593964     4.575669878039    -1.699453479917
O                     3.685620464348     4.295890140183    -1.373154932370
C                     4.199430278860     4.936091433747    -0.297709478861
N                     3.422187481497     5.745033274263     0.379882767312
N                     4.021190350088     6.353388646247     1.434024615257
C                     5.342508067170     6.160952903786     1.851481710956
N                     5.607630120176     6.886255052884     2.944477633579
C                     4.455162749025     7.544762988629     3.224901729357
H                     4.382907797284     8.233547660897     4.057596038231
C                     3.436889998241     7.242763274326     2.310891055148
C                     2.071695087060     7.705505519469     2.265171043747
C                     1.260576147998     8.168118597747     3.268131559807
H                     1.513822750007     8.202943300180     4.319486940481
C                     0.019562517289     8.554806827409     2.647249324972
C                    -1.204590014042     9.085725142229     3.092207125297
H                    -1.366963363209     9.309832648759     4.143031190884
C                    -2.206167499002     9.318741939779     2.150399476017
H                    -3.159150460786     9.729984346565     2.472059573642
C                    -2.009977524695     9.032262786685     0.782965499639
H                    -2.811541237867     9.227950751739     0.076281323552
C                    -0.802631883831     8.501423700277     0.318860041083
H                    -0.637745170459     8.276418000101    -0.730453350570
C                     0.182807945208     8.278364102211     1.273621292301
O                     1.434474743976     7.764082256335     1.036900402446
C                     6.138304045085     5.277245541379     1.089819367079
H                     7.168848912812     5.111673146636     1.385590633863
C                     5.572681225142     4.659565961108     0.004464715752
H                     6.119893774130     3.970052939911    -0.628347253077
H                     1.667144792866     4.257018179315    -0.868765006676
H                     2.175505918353     5.655249210999    -1.824903653255
H                     2.117405197555     2.742735902402    -2.792464261837
H                     0.921211082679     3.974275541214    -3.208885249724
H                     3.886314959116     4.014772705840    -4.039177279274
H                     2.763037214578     5.364427248707    -4.290704007723
H                     4.075526821716     4.081247121527    -6.846457359987
