17
0 1 C4H7NO4S
O                     2.019371960090     1.716109861800    -2.687607824001
N                     1.861621603579     0.684342531216    -1.779090734212
C                     0.748905728155     0.782839179747    -1.148037782181
C                     0.408551926969    -0.252555814078    -0.120393392955
O                     1.121672215590    -1.191327541950     0.161204735383
C                    -0.949193068686     0.004360727139     0.542319035650
S                    -1.382192379527    -1.251470479315     1.802633378514
O                    -0.453311280645    -1.113872545679     2.930072599096
O                    -1.604608254683    -2.531914569811     1.121560712660
C                    -2.997594118898    -0.643335356178     2.354162695889
H                    -3.327281755433    -1.349749424342     3.118724163573
H                    -2.885011725537     0.351986359843     2.786990002969
H                    -3.695165911043    -0.646477726874     1.515076402569
H                    -0.943173312783     0.981683702738     1.036542276477
H                    -1.739958116525    -0.000032777236    -0.215401192012
H                     0.053614282321     1.602844607584    -1.347854350790
H                     2.884861153454     1.528195367093    -3.091305597834
