44
0 1 C18H18N4O3S
N                     1.904870812498     0.006733414874    -4.272164628112
S                     1.592340455827     1.512211855201    -4.446430690037
O                     2.355601809189     2.179389031309    -5.517744079171
C                    -0.177460424282     1.819573843891    -4.776767198375
H                    -0.352852924568     2.885557122029    -4.931302496409
H                    -0.394917893099     1.265796952149    -5.691950227652
H                    -0.779481402176     1.434350016907    -3.950125142177
C                     1.859866836073     2.458716682490    -2.896984857355
C                     1.724929377907     3.970882144725    -3.065294527056
C                     2.120640041969     4.724780596361    -1.803240492944
O                     3.505382182508     4.417418062619    -1.535241652701
C                     4.062817620273     5.003134942482    -0.451642499144
N                     3.322162881396     5.796831637360     0.283277742096
N                     3.964358474530     6.344311828305     1.345518202742
C                     5.290974345596     6.104832755702     1.716671710412
N                     5.600943754448     6.770876852274     2.835475494472
C                     4.470991899926     7.438937923660     3.178884828374
H                     4.436007809316     8.088625919958     4.044785732191
C                     3.423171110805     7.202843410286     2.279658825670
C                     2.067896631875     7.696083360480     2.289925546196
C                     1.280151497834     8.102011145287     3.334981802441
H                     1.547054602577     8.052655051437     4.382342842402
C                     0.041618877434     8.563121042781     2.761267561317
C                    -1.163579245891     9.089267592064     3.260074032425
H                    -1.308235821422     9.239046211403     4.326588821446
C                    -2.169741765626     9.416733922588     2.351539040570
H                    -3.107800644169     9.826937173502     2.715615162889
C                    -1.996367870019     9.228859962856     0.964182822820
H                    -2.799876790992     9.498784140295     0.284570416186
C                    -0.808112090650     8.704079029449     0.446540828659
H                    -0.658858393937     8.556416441606    -0.618796683946
C                     0.181976099799     8.385365771541     1.368828585874
O                     1.416988310595     7.860323001250     1.077856877015
C                     6.047267334695     5.242843191153     0.891186779562
H                     7.082307367031     5.044056687151     1.148213543100
C                     5.438971426354     4.688060227698    -0.204437957858
H                     5.953235280205     4.020855613752    -0.886887653942
H                     1.514383370927     4.431756008015    -0.939450619899
H                     2.010965027580     5.805155732470    -1.936483329886
H                     0.690890046135     4.247588474259    -3.298389208907
H                     2.349472624730     4.295808477556    -3.901930512927
H                     1.172439672687     2.052232504888    -2.146447326603
H                     2.879645397653     2.182501238903    -2.616797483710
H                     1.377642751999    -0.406269723246    -3.499904087106
