15
0 1 C4H7NO2S
C                    -0.999180476241    -0.456183681004     0.108035385260
C                    -2.103536780515     0.386649097008    -0.366109766214
N                    -2.989455849657     1.033644687283    -0.750911590248
C                    -1.009550042357    -1.816592872244    -0.603058625611
S                     0.409708401429    -2.854134351714    -0.116808836490
O                     1.585869126551    -1.973703114834    -0.018387071826
O                     0.407970535843    -4.027424560348    -1.000810871227
C                    -0.003843101867    -3.416464250044     1.552193897562
H                     0.830742623945    -4.048291552379     1.862163364624
H                    -0.088907370087    -2.559360234716     2.221727933715
H                    -0.925684434604    -3.998909666431     1.517735100003
H                    -1.921216625568    -2.387930372136    -0.413436338459
H                    -0.892232708902    -1.702605449888    -1.683815107985
H                    -0.048706528824     0.051778518951    -0.077370031578
H                    -1.102631191859    -0.571226774853     1.191620399202
