
  -OEChem-12122420533D

 15 14  0     0  0  0  0  0  0999 V2000
   -1.0312   -0.4542    0.1363 C   0  0  0  0  0  0  0  0  0  0  0  0
   -2.2029    0.3321   -0.2684 C   0  0  0  0  0  0  0  0  0  0  0  0
   -3.1324    0.9408   -0.6103 N   0  0  0  0  0  0  0  0  0  0  0  0
   -0.9628   -1.7715   -0.6490 C   0  0  0  0  0  0  0  0  0  0  0  0
    0.4233   -2.8235   -0.1019 S   0  0  0  0  0  0  0  0  0  0  0  0
    0.2693   -4.1213   -0.7726 O   0  0  0  0  0  0  0  0  0  0  0  0
    0.4980   -2.7260    1.3654 O   0  0  0  0  0  0  0  0  0  0  0  0
    1.8899   -2.0157   -0.7871 C   0  0  0  0  0  0  0  0  0  0  0  0
    2.7342   -2.6368   -0.4819 H   0  0  0  0  0  0  0  0  0  0  0  0
    1.8128   -1.9920   -1.8751 H   0  0  0  0  0  0  0  0  0  0  0  0
    1.9936   -1.0152   -0.3648 H   0  0  0  0  0  0  0  0  0  0  0  0
   -1.8466   -2.3891   -0.4693 H   0  0  0  0  0  0  0  0  0  0  0  0
   -0.8613   -1.6190   -1.7260 H   0  0  0  0  0  0  0  0  0  0  0  0
   -0.1392    0.1575   -0.0314 H   0  0  0  0  0  0  0  0  0  0  0  0
   -1.0869   -0.6640    1.2081 H   0  0  0  0  0  0  0  0  0  0  0  0
  1  2  1  0  0  0  0
  1  4  1  0  0  0  0
  1 14  1  0  0  0  0
  1 15  1  0  0  0  0
  2  3  3  0  0  0  0
  4  5  1  0  0  0  0
  4 12  1  0  0  0  0
  4 13  1  0  0  0  0
  5  6  2  0  0  0  0
  5  7  2  0  0  0  0
  5  8  1  0  0  0  0
  8  9  1  0  0  0  0
  8 10  1  0  0  0  0
  8 11  1  0  0  0  0
M  END
$$$$
