15
0 1 C4H7NO2S
C                    -0.943349565836    -0.471722509411     0.078749591274
C                    -2.073336409556     0.381382915911    -0.305514477586
N                    -2.979214090421     1.035662043105    -0.626672904632
C                    -1.051394439244    -1.844762832580    -0.603145262504
S                     0.376373168799    -2.854337074211    -0.084437235560
O                     0.241141752692    -3.097779398367     1.360849493139
O                     1.586724758474    -2.215797190710    -0.626397790692
C                     0.117205851693    -4.416021384040    -0.952888239064
H                     0.955597213624    -5.055484650023    -0.669793862163
H                    -0.823871866418    -4.858447627047    -0.622832072936
H                     0.126674684112    -4.234551902626    -2.028659544023
H                    -1.959002307333    -2.370567750348    -0.298485660118
H                    -1.016444083682    -1.753074620375    -1.690997577348
H                    -0.010223021072     0.021242527930    -0.209573030009
H                    -0.938922104159    -0.588999508979     1.166461700616
