10
0 1 CH5NO2S
N                    -0.512385280044    -1.263204936335     2.596935557956
S                     0.488400079549    -1.836028461087     1.372762558051
O                    -0.347918664585    -2.701744158172     0.543961649337
O                     1.705562656186    -2.300549000955     2.034985529487
C                     0.940944630042    -0.401419602439     0.363492598608
H                     1.590894309762    -0.769803079082    -0.432483913404
H                     0.034918160421     0.033766877189    -0.060965860845
H                     1.477601331951     0.315647781953     0.986589937496
H                    -0.044321734706    -0.648205934975     3.257902252110
H                    -1.409035528550    -0.914865290112     2.266992937382
