
  -OEChem-12122420533D

 44 47  0     1  0  0  0  0  0999 V2000
    2.5792    1.9754   -5.6740 N   0  0  0  0  0  0  0  0  0  0  0  0
    1.5157    1.7803   -4.5646 S   0  0  1  0  0  0  0  0  0  0  0  0
    0.1602    2.2328   -4.9314 O   0  0  0  0  0  0  0  0  0  0  0  0
    1.3818    0.0488   -4.0068 C   0  0  0  0  0  0  0  0  0  0  0  0
    0.6181   -0.0267   -3.2301 H   0  0  0  0  0  0  0  0  0  0  0  0
    1.0856   -0.5200   -4.8902 H   0  0  0  0  0  0  0  0  0  0  0  0
    2.3522   -0.2961   -3.6415 H   0  0  0  0  0  0  0  0  0  0  0  0
    1.9716    2.6151   -2.9956 C   0  0  0  0  0  0  0  0  0  0  0  0
    2.0170    4.1260   -3.2180 C   0  0  0  0  0  0  0  0  0  0  0  0
    2.3607    4.8745   -1.9415 C   0  0  0  0  0  0  0  0  0  0  0  0
    3.6877    4.4572   -1.5399 O   0  0  0  0  0  0  0  0  0  0  0  0
    4.1602    4.9556   -0.3756 C   0  0  0  0  0  0  0  0  0  0  0  0
    3.3990    5.7695    0.3149 N   0  0  0  0  0  0  0  0  0  0  0  0
    3.9477    6.2081    1.4757 N   0  0  0  0  0  0  0  0  0  0  0  0
    5.2248    5.8938    1.9516 C   0  0  0  0  0  0  0  0  0  0  0  0
    5.4689    6.5168    3.1108 N   0  0  0  0  0  0  0  0  0  0  0  0
    4.3455    7.2289    3.3773 C   0  0  0  0  0  0  0  0  0  0  0  0
    4.2496    7.8221    4.2783 H   0  0  0  0  0  0  0  0  0  0  0  0
    3.3694    7.0690    2.3846 C   0  0  0  0  0  0  0  0  0  0  0  0
    2.0594    7.6623    2.2774 C   0  0  0  0  0  0  0  0  0  0  0  0
    1.5696    8.8259    2.8105 C   0  0  0  0  0  0  0  0  0  0  0  0
    2.1403    9.5506    3.3760 H   0  0  0  0  0  0  0  0  0  0  0  0
    0.1800    8.8957    2.4375 C   0  0  0  0  0  0  0  0  0  0  0  0
   -0.8724    9.8053    2.6458 C   0  0  0  0  0  0  0  0  0  0  0  0
   -0.7203   10.7119    3.2252 H   0  0  0  0  0  0  0  0  0  0  0  0
   -2.1179    9.5151    2.0898 C   0  0  0  0  0  0  0  0  0  0  0  0
   -2.9451   10.2036    2.2393 H   0  0  0  0  0  0  0  0  0  0  0  0
   -2.3299    8.3430    1.3338 C   0  0  0  0  0  0  0  0  0  0  0  0
   -3.3134    8.1484    0.9155 H   0  0  0  0  0  0  0  0  0  0  0  0
   -1.2975    7.4265    1.1117 C   0  0  0  0  0  0  0  0  0  0  0  0
   -1.4458    6.5213    0.5307 H   0  0  0  0  0  0  0  0  0  0  0  0
   -0.0650    7.7336    1.6764 C   0  0  0  0  0  0  0  0  0  0  0  0
    1.0777    6.9772    1.5808 O   0  0  0  0  0  0  0  0  0  0  0  0
    6.0079    5.0167    1.1692 C   0  0  0  0  0  0  0  0  0  0  0  0
    7.0021    4.7522    1.5135 H   0  0  0  0  0  0  0  0  0  0  0  0
    5.4789    4.5368   -0.0007 C   0  0  0  0  0  0  0  0  0  0  0  0
    6.0193    3.8621   -0.6550 H   0  0  0  0  0  0  0  0  0  0  0  0
    1.6569    4.6578   -1.1318 H   0  0  0  0  0  0  0  0  0  0  0  0
    2.3611    5.9567   -2.1031 H   0  0  0  0  0  0  0  0  0  0  0  0
    1.0387    4.4727   -3.5654 H   0  0  0  0  0  0  0  0  0  0  0  0
    2.7452    4.3670   -3.9976 H   0  0  0  0  0  0  0  0  0  0  0  0
    1.2133    2.3402   -2.2557 H   0  0  0  0  0  0  0  0  0  0  0  0
    2.9441    2.2242   -2.6829 H   0  0  0  0  0  0  0  0  0  0  0  0
    3.5041    1.6647   -5.3682 H   0  0  0  0  0  0  0  0  0  0  0  0
  1  2  2  0  0  0  0
  1 44  1  0  0  0  0
  2  3  2  0  0  0  0
  2  4  1  0  0  0  0
  2  8  1  0  0  0  0
  4  5  1  0  0  0  0
  4  6  1  0  0  0  0
  4  7  1  0  0  0  0
  8  9  1  0  0  0  0
  8 42  1  0  0  0  0
  8 43  1  0  0  0  0
  9 10  1  0  0  0  0
  9 40  1  0  0  0  0
  9 41  1  0  0  0  0
 10 11  1  0  0  0  0
 10 38  1  0  0  0  0
 10 39  1  0  0  0  0
 11 12  1  0  0  0  0
 12 13  2  0  0  0  0
 12 36  1  0  0  0  0
 13 14  1  0  0  0  0
 14 15  1  0  0  0  0
 14 19  1  0  0  0  0
 15 16  2  0  0  0  0
 15 34  1  0  0  0  0
 16 17  1  0  0  0  0
 17 18  1  0  0  0  0
 17 19  2  0  0  0  0
 19 20  1  0  0  0  0
 20 21  2  0  0  0  0
 20 33  1  0  0  0  0
 21 22  1  0  0  0  0
 21 23  1  0  0  0  0
 23 24  1  0  0  0  0
 23 32  2  0  0  0  0
 24 25  1  0  0  0  0
 24 26  2  0  0  0  0
 26 27  1  0  0  0  0
 26 28  1  0  0  0  0
 28 29  1  0  0  0  0
 28 30  2  0  0  0  0
 30 31  1  0  0  0  0
 30 32  1  0  0  0  0
 32 33  1  0  0  0  0
 34 35  1  0  0  0  0
 34 36  2  0  0  0  0
 36 37  1  0  0  0  0
M  END
$$$$
