12
0 1 C3H5NO2S
C                     1.086303280854     0.106853875427     0.166257806233
S                     1.189570784738     1.344857128111     1.475509404478
O                     0.703202999682     0.751483403266     2.723823331147
O                     0.657904271551     2.616794377440     0.972005607191
C                     3.014692485463     1.621611570437     1.659156201399
C                     3.742428807395     0.379280658898     1.870454031609
N                     4.292611723318    -0.636494481288     2.001289614961
H                     3.360806497006     2.140016654011     0.761860928208
H                     3.099929747005     2.286995767153     2.522768953541
H                     1.565159813454     0.497697241590    -0.732854645625
H                     1.553472458496    -0.816870613791     0.508176860691
H                     0.019055311516    -0.043784270580    -0.007363019335
