
  -OEChem-12122420533D

 12 11  0     0  0  0  0  0  0999 V2000
    1.0686    0.2130    0.0614 C   0  0  0  0  0  0  0  0  0  0  0  0
    1.1983    1.2487    1.5381 S   0  0  0  0  0  0  0  0  0  0  0  0
    0.8929    0.4256    2.7112 O   0  0  0  0  0  0  0  0  0  0  0  0
    0.5081    2.5151    1.2795 O   0  0  0  0  0  0  0  0  0  0  0  0
    3.0221    1.6005    1.5613 C   0  0  0  0  0  0  0  0  0  0  0  0
    3.3602    2.4431    2.6998 C   0  0  0  0  0  0  0  0  0  0  0  0
    3.6379    3.1153    3.6058 N   0  0  0  0  0  0  0  0  0  0  0  0
    3.5425    0.6417    1.6300 H   0  0  0  0  0  0  0  0  0  0  0  0
    3.2726    2.1072    0.6256 H   0  0  0  0  0  0  0  0  0  0  0  0
    1.3910    0.7843   -0.8105 H   0  0  0  0  0  0  0  0  0  0  0  0
    1.6623   -0.6917    0.2008 H   0  0  0  0  0  0  0  0  0  0  0  0
    0.0105   -0.0413   -0.0260 H   0  0  0  0  0  0  0  0  0  0  0  0
  1  2  1  0  0  0  0
  1 10  1  0  0  0  0
  1 11  1  0  0  0  0
  1 12  1  0  0  0  0
  2  3  2  0  0  0  0
  2  4  2  0  0  0  0
  2  5  1  0  0  0  0
  5  6  1  0  0  0  0
  5  8  1  0  0  0  0
  5  9  1  0  0  0  0
  6  7  3  0  0  0  0
M  END
$$$$
