19
0 1 C6H8N2O2S
C                    -0.607411240463    -1.361712655254     1.576341285581
H                    -1.520457251076    -1.672415874144     1.074540645147
N                    -0.357983197082    -1.916597083147     2.774640520319
C                     0.740546479803    -1.549866729651     3.426552537305
H                     0.908780667666    -2.012946155930     4.400062928688
C                     1.684685297574    -0.610194326292     2.946325663276
N                     2.835690038789    -0.318141085050     3.666869609648
H                     2.802817164163    -0.608211663328     4.637648922738
H                     3.182913311601     0.631163052641     3.547242200706
C                     1.407262335094    -0.065614502721     1.676785380332
S                     2.536277620038     1.096136372406     0.900256151980
O                     1.880833974891     1.661436875801    -0.286067437348
O                     3.075233284713     1.981362420490     1.954486758818
C                     3.886658781426     0.029776029046     0.352515849268
H                     4.650438839581     0.691545971871    -0.061525751501
H                     4.273011454527    -0.513536351605     1.216608078297
H                     3.505343891245    -0.648540311471    -0.411560447582
C                     0.249726790376    -0.432559453451     0.989496633829
H                     0.033168933400     0.010467754948     0.022336564771
