
  -OEChem-12122420533D

 19 19  0     0  0  0  0  0  0999 V2000
   -0.6074   -1.3617    1.5763 C   0  0  0  0  0  0  0  0  0  0  0  0
   -1.5205   -1.6724    1.0745 H   0  0  0  0  0  0  0  0  0  0  0  0
   -0.3580   -1.9166    2.7746 N   0  0  0  0  0  0  0  0  0  0  0  0
    0.7405   -1.5499    3.4266 C   0  0  0  0  0  0  0  0  0  0  0  0
    0.9088   -2.0129    4.4001 H   0  0  0  0  0  0  0  0  0  0  0  0
    1.6847   -0.6102    2.9463 C   0  0  0  0  0  0  0  0  0  0  0  0
    2.8357   -0.3181    3.6669 N   0  0  0  0  0  0  0  0  0  0  0  0
    2.8028   -0.6082    4.6376 H   0  0  0  0  0  0  0  0  0  0  0  0
    3.1829    0.6312    3.5472 H   0  0  0  0  0  0  0  0  0  0  0  0
    1.4073   -0.0656    1.6768 C   0  0  0  0  0  0  0  0  0  0  0  0
    2.5363    1.0961    0.9003 S   0  0  0  0  0  0  0  0  0  0  0  0
    1.8808    1.6614   -0.2861 O   0  0  0  0  0  0  0  0  0  0  0  0
    3.0752    1.9814    1.9545 O   0  0  0  0  0  0  0  0  0  0  0  0
    3.8867    0.0298    0.3525 C   0  0  0  0  0  0  0  0  0  0  0  0
    4.6504    0.6915   -0.0615 H   0  0  0  0  0  0  0  0  0  0  0  0
    4.2730   -0.5135    1.2166 H   0  0  0  0  0  0  0  0  0  0  0  0
    3.5053   -0.6485   -0.4116 H   0  0  0  0  0  0  0  0  0  0  0  0
    0.2497   -0.4326    0.9895 C   0  0  0  0  0  0  0  0  0  0  0  0
    0.0332    0.0105    0.0223 H   0  0  0  0  0  0  0  0  0  0  0  0
  1  2  1  0  0  0  0
  1  3  2  0  0  0  0
  1 18  1  0  0  0  0
  3  4  1  0  0  0  0
  4  5  1  0  0  0  0
  4  6  2  0  0  0  0
  6  7  1  0  0  0  0
  6 10  1  0  0  0  0
  7  8  1  0  0  0  0
  7  9  1  0  0  0  0
 10 11  1  0  0  0  0
 10 18  2  0  0  0  0
 11 12  2  0  0  0  0
 11 13  2  0  0  0  0
 11 14  1  0  0  0  0
 14 15  1  0  0  0  0
 14 16  1  0  0  0  0
 14 17  1  0  0  0  0
 18 19  1  0  0  0  0
M  END
$$$$
