
  -OEChem-12122420533D

 44 47  0     1  0  0  0  0  0999 V2000
    1.9049    0.0067   -4.2722 N   0  0  0  0  0  0  0  0  0  0  0  0
    1.5923    1.5122   -4.4464 S   0  0  1  0  0  0  0  0  0  0  0  0
    2.3556    2.1794   -5.5177 O   0  0  0  0  0  0  0  0  0  0  0  0
   -0.1775    1.8196   -4.7768 C   0  0  0  0  0  0  0  0  0  0  0  0
   -0.3529    2.8856   -4.9313 H   0  0  0  0  0  0  0  0  0  0  0  0
   -0.3949    1.2658   -5.6920 H   0  0  0  0  0  0  0  0  0  0  0  0
   -0.7795    1.4344   -3.9501 H   0  0  0  0  0  0  0  0  0  0  0  0
    1.8599    2.4587   -2.8970 C   0  0  0  0  0  0  0  0  0  0  0  0
    1.7249    3.9709   -3.0653 C   0  0  0  0  0  0  0  0  0  0  0  0
    2.1206    4.7248   -1.8032 C   0  0  0  0  0  0  0  0  0  0  0  0
    3.5054    4.4174   -1.5352 O   0  0  0  0  0  0  0  0  0  0  0  0
    4.0628    5.0031   -0.4516 C   0  0  0  0  0  0  0  0  0  0  0  0
    3.3222    5.7968    0.2833 N   0  0  0  0  0  0  0  0  0  0  0  0
    3.9644    6.3443    1.3455 N   0  0  0  0  0  0  0  0  0  0  0  0
    5.2910    6.1048    1.7167 C   0  0  0  0  0  0  0  0  0  0  0  0
    5.6009    6.7709    2.8355 N   0  0  0  0  0  0  0  0  0  0  0  0
    4.4710    7.4389    3.1789 C   0  0  0  0  0  0  0  0  0  0  0  0
    4.4360    8.0886    4.0448 H   0  0  0  0  0  0  0  0  0  0  0  0
    3.4232    7.2028    2.2797 C   0  0  0  0  0  0  0  0  0  0  0  0
    2.0679    7.6961    2.2899 C   0  0  0  0  0  0  0  0  0  0  0  0
    1.2802    8.1020    3.3350 C   0  0  0  0  0  0  0  0  0  0  0  0
    1.5471    8.0527    4.3823 H   0  0  0  0  0  0  0  0  0  0  0  0
    0.0416    8.5631    2.7613 C   0  0  0  0  0  0  0  0  0  0  0  0
   -1.1636    9.0893    3.2601 C   0  0  0  0  0  0  0  0  0  0  0  0
   -1.3082    9.2390    4.3266 H   0  0  0  0  0  0  0  0  0  0  0  0
   -2.1697    9.4167    2.3515 C   0  0  0  0  0  0  0  0  0  0  0  0
   -3.1078    9.8269    2.7156 H   0  0  0  0  0  0  0  0  0  0  0  0
   -1.9964    9.2289    0.9642 C   0  0  0  0  0  0  0  0  0  0  0  0
   -2.7999    9.4988    0.2846 H   0  0  0  0  0  0  0  0  0  0  0  0
   -0.8081    8.7041    0.4465 C   0  0  0  0  0  0  0  0  0  0  0  0
   -0.6589    8.5564   -0.6188 H   0  0  0  0  0  0  0  0  0  0  0  0
    0.1820    8.3854    1.3688 C   0  0  0  0  0  0  0  0  0  0  0  0
    1.4170    7.8603    1.0779 O   0  0  0  0  0  0  0  0  0  0  0  0
    6.0473    5.2428    0.8912 C   0  0  0  0  0  0  0  0  0  0  0  0
    7.0823    5.0441    1.1482 H   0  0  0  0  0  0  0  0  0  0  0  0
    5.4390    4.6881   -0.2044 C   0  0  0  0  0  0  0  0  0  0  0  0
    5.9532    4.0209   -0.8869 H   0  0  0  0  0  0  0  0  0  0  0  0
    1.5144    4.4318   -0.9395 H   0  0  0  0  0  0  0  0  0  0  0  0
    2.0110    5.8052   -1.9365 H   0  0  0  0  0  0  0  0  0  0  0  0
    0.6909    4.2476   -3.2984 H   0  0  0  0  0  0  0  0  0  0  0  0
    2.3495    4.2958   -3.9019 H   0  0  0  0  0  0  0  0  0  0  0  0
    1.1724    2.0522   -2.1464 H   0  0  0  0  0  0  0  0  0  0  0  0
    2.8796    2.1825   -2.6168 H   0  0  0  0  0  0  0  0  0  0  0  0
    1.3776   -0.4063   -3.4999 H   0  0  0  0  0  0  0  0  0  0  0  0
  1  2  2  0  0  0  0
  1 44  1  0  0  0  0
  2  3  2  0  0  0  0
  2  4  1  0  0  0  0
  2  8  1  0  0  0  0
  4  5  1  0  0  0  0
  4  6  1  0  0  0  0
  4  7  1  0  0  0  0
  8  9  1  0  0  0  0
  8 42  1  0  0  0  0
  8 43  1  0  0  0  0
  9 10  1  0  0  0  0
  9 40  1  0  0  0  0
  9 41  1  0  0  0  0
 10 11  1  0  0  0  0
 10 38  1  0  0  0  0
 10 39  1  0  0  0  0
 11 12  1  0  0  0  0
 12 13  2  0  0  0  0
 12 36  1  0  0  0  0
 13 14  1  0  0  0  0
 14 15  1  0  0  0  0
 14 19  1  0  0  0  0
 15 16  2  0  0  0  0
 15 34  1  0  0  0  0
 16 17  1  0  0  0  0
 17 18  1  0  0  0  0
 17 19  2  0  0  0  0
 19 20  1  0  0  0  0
 20 21  2  0  0  0  0
 20 33  1  0  0  0  0
 21 22  1  0  0  0  0
 21 23  1  0  0  0  0
 23 24  1  0  0  0  0
 23 32  2  0  0  0  0
 24 25  1  0  0  0  0
 24 26  2  0  0  0  0
 26 27  1  0  0  0  0
 26 28  1  0  0  0  0
 28 29  1  0  0  0  0
 28 30  2  0  0  0  0
 30 31  1  0  0  0  0
 30 32  1  0  0  0  0
 32 33  1  0  0  0  0
 34 35  1  0  0  0  0
 34 36  2  0  0  0  0
 36 37  1  0  0  0  0
M  END
$$$$
