
  -OEChem-12122420533D

 17 16  0     0  0  0  0  0  0999 V2000
    0.7754    2.8243   -1.1508 O   0  0  0  0  0  0  0  0  0  0  0  0
    0.1205    1.6463   -0.8377 N   0  0  0  0  0  0  0  0  0  0  0  0
    0.9266    0.6485   -0.7963 C   0  0  0  0  0  0  0  0  0  0  0  0
    0.3897   -0.7003   -0.4945 C   0  0  0  0  0  0  0  0  0  0  0  0
    1.1025   -1.6863   -0.5929 O   0  0  0  0  0  0  0  0  0  0  0  0
   -1.0654   -0.8104   -0.0608 C   0  0  0  0  0  0  0  0  0  0  0  0
   -1.1822   -0.6954    1.7731 S   0  0  0  0  0  0  0  0  0  0  0  0
   -0.4276    0.4916    2.2002 O   0  0  0  0  0  0  0  0  0  0  0  0
   -0.8918   -2.0177    2.3399 O   0  0  0  0  0  0  0  0  0  0  0  0
   -2.9437   -0.3574    2.0093 C   0  0  0  0  0  0  0  0  0  0  0  0
   -3.0984   -0.3293    3.0897 H   0  0  0  0  0  0  0  0  0  0  0  0
   -3.1856    0.6086    1.5642 H   0  0  0  0  0  0  0  0  0  0  0  0
   -3.5261   -1.1670    1.5662 H   0  0  0  0  0  0  0  0  0  0  0  0
   -1.6643    0.0064   -0.4656 H   0  0  0  0  0  0  0  0  0  0  0  0
   -1.4587   -1.7890   -0.3381 H   0  0  0  0  0  0  0  0  0  0  0  0
    1.9959    0.7353   -0.9943 H   0  0  0  0  0  0  0  0  0  0  0  0
    0.0698    3.4933   -1.1202 H   0  0  0  0  0  0  0  0  0  0  0  0
  1  2  1  0  0  0  0
  1 17  1  0  0  0  0
  2  3  2  0  0  0  0
  3  4  1  0  0  0  0
  3 16  1  0  0  0  0
  4  5  2  0  0  0  0
  4  6  1  0  0  0  0
  6  7  1  0  0  0  0
  6 14  1  0  0  0  0
  6 15  1  0  0  0  0
  7  8  2  0  0  0  0
  7  9  2  0  0  0  0
  7 10  1  0  0  0  0
 10 11  1  0  0  0  0
 10 12  1  0  0  0  0
 10 13  1  0  0  0  0
M  END
$$$$
