44
0 1 C18H18N4O3S
N                    -1.162035683593     2.686270122222    -1.993526294233
S                    -0.077435496090     2.470454663831    -0.906688322142
O                    -0.378218049892     3.131617592770     0.378655081475
C                     0.237466283582     0.710819076851    -0.551085380030
H                     0.991429241920     0.630840778428     0.234434606175
H                    -0.716495073947     0.305183852957    -0.209204802047
H                     0.561560829214     0.203357822503    -1.462921093569
C                     1.585713305029     3.024423509314    -1.451149768772
C                     1.577617967936     4.543751676143    -1.594444051659
C                     2.828399289185     5.069271563190    -2.297588254461
O                     4.081780992540     4.547320981721    -1.788800109424
C                     4.515858602491     5.005102931362    -0.590242869045
N                     3.705051756272     5.733008732879     0.135282301788
N                     4.213143027840     6.139922168451     1.322197881661
C                     5.514970148108     5.921534247344     1.780350287100
N                     5.703026192427     6.509863939686     2.967740433097
C                     4.513228517669     7.093241866862     3.271851590929
H                     4.361828938573     7.622304293703     4.204596625384
C                     3.552641020070     6.883551925731     2.275420005086
C                     2.158090262425     7.251206524268     2.188676366528
C                     1.479110338977     8.363090781830     2.606654865824
H                     1.924443267735     9.244620431846     3.049083056204
C                     0.086712898654     8.129766273024     2.307265831414
C                    -1.110279670548     8.852036723548     2.463247063842
H                    -1.113028381026     9.839630626631     2.916917613479
C                    -2.295560251594     8.265600242054     2.020563714795
H                    -3.232982715165     8.804425543923     2.131230264398
C                    -2.307539707080     6.981779233646     1.433487844353
H                    -3.251275900370     6.553864791915     1.106661717710
C                    -1.132822672641     6.242835123604     1.265884975486
H                    -1.122170790482     5.247023357735     0.832028238811
C                     0.035405522048     6.852546173516     1.710474881230
O                     1.298202928430     6.314135444949     1.638553125919
C                     6.356414534455     5.134626345735     0.961926580530
H                     7.370238508305     4.931888544295     1.290833384340
C                     5.856913714054     4.655390975170    -0.223051771535
H                     6.443628749139     4.046695194071    -0.901730169808
H                     2.851474289003     6.161474418511    -2.241041462542
H                     2.841641139241     4.764308371838    -3.346766219083
H                     1.471349166709     5.003731621538    -0.612991684030
H                     0.719479776293     4.851574080757    -2.203751339359
H                     2.306119638868     2.692262863629    -0.699112999605
H                     1.792299711779     2.514352194210    -2.398849187155
H                    -0.922552202943     2.208024932179    -2.864900425022
