
  -OEChem-12102412493D

 15 14  0     0  0  0  0  0  0999 V2000
   -0.9583   -0.4176    0.0910 C   0  0  0  0  0  0  0  0  0  0  0  0
   -1.2774   -0.4160    1.5243 C   0  0  0  0  0  0  0  0  0  0  0  0
   -1.5315   -0.4525    2.6582 N   0  0  0  0  0  0  0  0  0  0  0  0
   -1.0229   -1.8151   -0.5384 C   0  0  0  0  0  0  0  0  0  0  0  0
    0.4097   -2.8772   -0.1232 S   0  0  0  0  0  0  0  0  0  0  0  0
    1.5905   -1.9989   -0.0573 O   0  0  0  0  0  0  0  0  0  0  0  0
    0.3611   -4.0133   -1.0559 O   0  0  0  0  0  0  0  0  0  0  0  0
    0.0777   -3.5069    1.5364 C   0  0  0  0  0  0  0  0  0  0  0  0
    0.9160   -4.1688    1.7636 H   0  0  0  0  0  0  0  0  0  0  0  0
    0.0368   -2.6807    2.2455 H   0  0  0  0  0  0  0  0  0  0  0  0
   -0.8557   -4.0713    1.5216 H   0  0  0  0  0  0  0  0  0  0  0  0
   -1.9341   -2.3606   -0.2836 H   0  0  0  0  0  0  0  0  0  0  0  0
   -0.9548   -1.7397   -1.6271 H   0  0  0  0  0  0  0  0  0  0  0  0
   -1.6728    0.2379   -0.4172 H   0  0  0  0  0  0  0  0  0  0  0  0
    0.0421    0.0029   -0.0493 H   0  0  0  0  0  0  0  0  0  0  0  0
  1  2  1  0  0  0  0
  1  4  1  0  0  0  0
  1 14  1  0  0  0  0
  1 15  1  0  0  0  0
  2  3  3  0  0  0  0
  4  5  1  0  0  0  0
  4 12  1  0  0  0  0
  4 13  1  0  0  0  0
  5  6  2  0  0  0  0
  5  7  2  0  0  0  0
  5  8  1  0  0  0  0
  8  9  1  0  0  0  0
  8 10  1  0  0  0  0
  8 11  1  0  0  0  0
M  END
$$$$
