
  -OEChem-12122420533D

 12 11  0     0  0  0  0  0  0999 V2000
    1.2291    0.4859   -0.6176 C   0  0  0  0  0  0  0  0  0  0  0  0
    0.0703   -0.1426   -0.8040 C   0  0  0  0  0  0  0  0  0  0  0  0
    0.0194   -1.6851   -1.7210 S   0  0  0  0  0  0  0  0  0  0  0  0
   -1.1102   -1.6021   -2.6602 O   0  0  0  0  0  0  0  0  0  0  0  0
    1.3805   -1.9897   -2.1899 O   0  0  0  0  0  0  0  0  0  0  0  0
   -0.4100   -2.8988   -0.4520 C   0  0  0  0  0  0  0  0  0  0  0  0
   -0.5009   -3.8567   -0.9686 H   0  0  0  0  0  0  0  0  0  0  0  0
    0.3896   -2.9347    0.2889 H   0  0  0  0  0  0  0  0  0  0  0  0
   -1.3645   -2.6220   -0.0012 H   0  0  0  0  0  0  0  0  0  0  0  0
   -0.9025    0.2309   -0.4950 H   0  0  0  0  0  0  0  0  0  0  0  0
    1.2678    1.4454   -0.1079 H   0  0  0  0  0  0  0  0  0  0  0  0
    2.1580    0.0579   -0.9867 H   0  0  0  0  0  0  0  0  0  0  0  0
  1  2  2  0  0  0  0
  1 11  1  0  0  0  0
  1 12  1  0  0  0  0
  2  3  1  0  0  0  0
  2 10  1  0  0  0  0
  3  4  2  0  0  0  0
  3  5  2  0  0  0  0
  3  6  1  0  0  0  0
  6  7  1  0  0  0  0
  6  8  1  0  0  0  0
  6  9  1  0  0  0  0
M  END
$$$$
