
  -OEChem-12102412493D

 15 14  0     0  0  0  0  0  0999 V2000
   -0.9992   -0.4562    0.1080 C   0  0  0  0  0  0  0  0  0  0  0  0
   -2.1035    0.3866   -0.3661 C   0  0  0  0  0  0  0  0  0  0  0  0
   -2.9895    1.0336   -0.7509 N   0  0  0  0  0  0  0  0  0  0  0  0
   -1.0096   -1.8166   -0.6031 C   0  0  0  0  0  0  0  0  0  0  0  0
    0.4097   -2.8541   -0.1168 S   0  0  0  0  0  0  0  0  0  0  0  0
    1.5859   -1.9737   -0.0184 O   0  0  0  0  0  0  0  0  0  0  0  0
    0.4080   -4.0274   -1.0008 O   0  0  0  0  0  0  0  0  0  0  0  0
   -0.0038   -3.4165    1.5522 C   0  0  0  0  0  0  0  0  0  0  0  0
    0.8307   -4.0483    1.8622 H   0  0  0  0  0  0  0  0  0  0  0  0
   -0.0889   -2.5594    2.2217 H   0  0  0  0  0  0  0  0  0  0  0  0
   -0.9257   -3.9989    1.5177 H   0  0  0  0  0  0  0  0  0  0  0  0
   -1.9212   -2.3879   -0.4134 H   0  0  0  0  0  0  0  0  0  0  0  0
   -0.8922   -1.7026   -1.6838 H   0  0  0  0  0  0  0  0  0  0  0  0
   -0.0487    0.0518   -0.0774 H   0  0  0  0  0  0  0  0  0  0  0  0
   -1.1026   -0.5712    1.1916 H   0  0  0  0  0  0  0  0  0  0  0  0
  1  2  1  0  0  0  0
  1  4  1  0  0  0  0
  1 14  1  0  0  0  0
  1 15  1  0  0  0  0
  2  3  3  0  0  0  0
  4  5  1  0  0  0  0
  4 12  1  0  0  0  0
  4 13  1  0  0  0  0
  5  6  2  0  0  0  0
  5  7  2  0  0  0  0
  5  8  1  0  0  0  0
  8  9  1  0  0  0  0
  8 10  1  0  0  0  0
  8 11  1  0  0  0  0
M  END
$$$$
