
  -OEChem-12102412493D

 17 16  0     0  0  0  0  0  0999 V2000
    3.4116    0.7321    2.2688 O   0  0  0  0  0  0  0  0  0  0  0  0
    2.7375    0.3303    1.1306 N   0  0  0  0  0  0  0  0  0  0  0  0
    1.4698    0.2799    1.3326 C   0  0  0  0  0  0  0  0  0  0  0  0
    0.5981   -0.1326    0.1952 C   0  0  0  0  0  0  0  0  0  0  0  0
    1.0078   -0.5045   -0.8887 O   0  0  0  0  0  0  0  0  0  0  0  0
   -0.9128   -0.0199    0.4362 C   0  0  0  0  0  0  0  0  0  0  0  0
   -1.4831   -1.0711    1.8238 S   0  0  0  0  0  0  0  0  0  0  0  0
   -1.1054   -0.3974    3.0787 O   0  0  0  0  0  0  0  0  0  0  0  0
   -1.0562   -2.4499    1.5554 O   0  0  0  0  0  0  0  0  0  0  0  0
   -3.2818   -0.9895    1.6663 C   0  0  0  0  0  0  0  0  0  0  0  0
   -3.6763   -1.5706    2.5024 H   0  0  0  0  0  0  0  0  0  0  0  0
   -3.6042    0.0500    1.7431 H   0  0  0  0  0  0  0  0  0  0  0  0
   -3.5785   -1.4394    0.7178 H   0  0  0  0  0  0  0  0  0  0  0  0
   -1.1911    1.0064    0.6948 H   0  0  0  0  0  0  0  0  0  0  0  0
   -1.4264   -0.3489   -0.4682 H   0  0  0  0  0  0  0  0  0  0  0  0
    1.0242    0.5224    2.2988 H   0  0  0  0  0  0  0  0  0  0  0  0
    4.3443    0.7209    1.9916 H   0  0  0  0  0  0  0  0  0  0  0  0
  1  2  1  0  0  0  0
  1 17  1  0  0  0  0
  2  3  2  0  0  0  0
  3  4  1  0  0  0  0
  3 16  1  0  0  0  0
  4  5  2  0  0  0  0
  4  6  1  0  0  0  0
  6  7  1  0  0  0  0
  6 14  1  0  0  0  0
  6 15  1  0  0  0  0
  7  8  2  0  0  0  0
  7  9  2  0  0  0  0
  7 10  1  0  0  0  0
 10 11  1  0  0  0  0
 10 12  1  0  0  0  0
 10 13  1  0  0  0  0
M  END
$$$$
