15
0 1 C4H7NO2S
C                    -0.899035610035    -0.490245452777     0.211030955559
C                    -1.347248236505    -0.647984521939     1.600937627545
N                    -1.747515613777    -0.743146830158     2.687557308745
C                    -0.934014863965    -1.795663844769    -0.600505334986
S                     0.554939848623    -2.793804032699    -0.247304312357
O                     0.485126097189    -3.258489633522     1.143696047212
O                     1.707372585124    -2.007657908143    -0.719758996649
C                     0.355918559276    -4.219568069986    -1.339131054976
H                     1.230959237247    -4.848982758166    -1.165596247163
H                    -0.553842393297    -4.756291220678    -1.065523454893
H                     0.333626381890    -3.881374819975    -2.376198195869
H                    -1.815624927749    -2.397608049633    -0.370951663607
H                    -0.900678329558    -1.568720382316    -1.668765927251
H                    -1.561940950192     0.236610556406    -0.268695644919
H                     0.109005113082    -0.063330150538     0.196016996860
