
  -OEChem-12122420533D

 15 14  0     0  0  0  0  0  0999 V2000
   -0.9433   -0.4717    0.0787 C   0  0  0  0  0  0  0  0  0  0  0  0
   -2.0733    0.3814   -0.3055 C   0  0  0  0  0  0  0  0  0  0  0  0
   -2.9792    1.0357   -0.6267 N   0  0  0  0  0  0  0  0  0  0  0  0
   -1.0514   -1.8448   -0.6031 C   0  0  0  0  0  0  0  0  0  0  0  0
    0.3764   -2.8543   -0.0844 S   0  0  0  0  0  0  0  0  0  0  0  0
    0.2411   -3.0978    1.3608 O   0  0  0  0  0  0  0  0  0  0  0  0
    1.5867   -2.2158   -0.6264 O   0  0  0  0  0  0  0  0  0  0  0  0
    0.1172   -4.4160   -0.9529 C   0  0  0  0  0  0  0  0  0  0  0  0
    0.9556   -5.0555   -0.6698 H   0  0  0  0  0  0  0  0  0  0  0  0
   -0.8239   -4.8584   -0.6228 H   0  0  0  0  0  0  0  0  0  0  0  0
    0.1267   -4.2346   -2.0287 H   0  0  0  0  0  0  0  0  0  0  0  0
   -1.9590   -2.3706   -0.2985 H   0  0  0  0  0  0  0  0  0  0  0  0
   -1.0164   -1.7531   -1.6910 H   0  0  0  0  0  0  0  0  0  0  0  0
   -0.0102    0.0212   -0.2096 H   0  0  0  0  0  0  0  0  0  0  0  0
   -0.9389   -0.5890    1.1665 H   0  0  0  0  0  0  0  0  0  0  0  0
  1  2  1  0  0  0  0
  1  4  1  0  0  0  0
  1 14  1  0  0  0  0
  1 15  1  0  0  0  0
  2  3  3  0  0  0  0
  4  5  1  0  0  0  0
  4 12  1  0  0  0  0
  4 13  1  0  0  0  0
  5  6  2  0  0  0  0
  5  7  2  0  0  0  0
  5  8  1  0  0  0  0
  8  9  1  0  0  0  0
  8 10  1  0  0  0  0
  8 11  1  0  0  0  0
M  END
$$$$
