21   
torsion grid (-165,)
C       -0.2308569393   -2.6672223834    0.9873883203
C       -0.1538626057   -1.1913674258    0.5743384286
C       -1.3288196651   -0.3886224937    1.1470452627
C       -0.0803813034   -1.0552876807   -0.9650498654
C        0.3533108778    0.3143504996   -1.4170705080
C       -0.3930212100    1.2632186178   -2.0030973918
C       -1.8528461001    1.1871410332   -2.3629326369
H        0.6399012046   -3.2276523376    0.6289447082
H       -0.2743441412   -2.7726316421    2.0772477698
H       -1.1282606374   -3.1431879603    0.5724108040
H        0.7752557929   -0.7742765752    0.9881060730
H       -1.2735777965    0.6630306343    0.8492689578
H       -1.3417186888   -0.4324842231    2.2417978767
H       -2.2840437936   -0.7908306871    0.7862250058
H        0.6435875294   -1.7894853817   -1.3436154451
H       -1.0503463031   -1.3302577171   -1.3936119568
H        1.3981318117    0.5546218196   -1.2133299440
H        0.0966053623    2.2062863906   -2.2493521268
H       -2.4178637542    1.9739053847   -1.8471852941
H       -2.3036941364    0.2278585147   -2.1003466611
H       -1.9986560720    1.3481237168   -3.4384321653
21   
torsion grid (-150,)
C       -0.0743470263   -2.6792672651    1.0381519968
C       -0.2480474304   -1.2249994104    0.5814416452
C       -1.5051521589   -0.5778631647    1.1743820518
C       -0.2435662768   -1.1100817809   -0.9649739609
C        0.3001416963    0.2096353895   -1.4456022368
C       -0.3745128775    1.2226899097   -2.0109862663
C       -1.8462925081    1.2815315074   -2.3230292500
H        0.8705843491   -3.0971097200    0.6737723641
H       -0.0781100321   -2.7551167512    2.1314979937
H       -0.8873022841   -3.3119628318    0.6594687054
H        0.6203665004   -0.6629281914    0.9522951492
H       -1.6140633605    0.4553532008    0.8277994853
H       -1.4691669004   -0.5651702779    2.2694723422
H       -2.4045280701   -1.1310100007    0.8755708760
H        0.3936444644   -1.9062042340   -1.3729588459
H       -1.2513019810   -1.2988011668   -1.3489053767
H        1.3694690999    0.3498382122   -1.2798845394
H        0.1925120795    2.1144286826   -2.2813107733
H       -2.3146685752    2.1330163587   -1.8134958922
H       -2.3794271980    0.3778159940   -2.0201398000
H       -2.0114632025    1.4286096904   -3.3978244799
21   
torsion grid (-135,)
C        0.1305105369   -2.6253166049    0.9516116745
C       -0.2778103088   -1.2057846548    0.5368193827
C       -1.5853319390   -0.7595174955    1.2022267320
C       -0.3617812840   -1.0549183867   -1.0103195289
C        0.2926718186    0.2077524079   -1.5052244433
C       -0.2978307539    1.2849064621   -2.0458314211
C       -1.7660147264    1.4894615689   -2.3101875352
H        1.1042309824   -2.8941015726    0.5272974537
H        0.2005320685   -2.7163631408    2.0416596983
H       -0.6011475432   -3.3652619085    0.6027404166
H        0.5130594930   -0.5297429195    0.8880019619
H       -1.8528072502    0.2572213171    0.8934484330
H       -1.5019131859   -0.7687445412    2.2948848310
H       -2.4120272087   -1.4248180936    0.9233346660
H        0.1526238305   -1.9053198927   -1.4772462535
H       -1.4049232065   -1.1197232737   -1.3333026128
H        1.3755861584    0.2414038963   -1.3750573658
H        0.3448988272    2.1181953928   -2.3326756292
H       -2.1302977302    2.3849869369   -1.7913081060
H       -2.3763938002    0.6439646219   -1.9853267076
H       -1.9510911337    1.6488160157   -3.3799952302
21   
torsion grid (-120,)
C        0.2385712312   -2.5197780290    0.9970140193
C       -0.3706308319   -1.1712431193    0.5903466632
C       -1.7095068296   -0.9214267002    1.2971817607
C       -0.5232318700   -1.0486809742   -0.9583517063
C        0.2519707765    0.1087705632   -1.5297922296
C       -0.2298013462    1.2092909278   -2.1281265866
C       -1.6707662629    1.5546738201   -2.3956411538
H        1.2150977927   -2.6712831013    0.5230648669
H        0.3780604423   -2.5836131917    2.0822997680
H       -0.4111864815   -3.3504988689    0.6942304101
H        0.3221047803   -0.3861256142    0.9184735961
H       -2.1231581613    0.0548762514    1.0202327834
H       -1.5955803415   -0.9416094608    2.3870689254
H       -2.4450197007   -1.6879936122    1.0231455069
H       -0.1600088705   -1.9723108390   -1.4278340586
H       -1.5817604343   -0.9754809664   -1.2219158897
H        1.3347470181    0.0369951699   -1.4122581023
H        0.4938702773    1.9520676811   -2.4662345978
H       -1.9300427092    2.5140399051   -1.9305670426
H       -2.3653722702    0.8013148069   -2.0174028547
H       -1.8504430397    1.6683379171   -3.4721590123
21   
torsion grid (-105,)
C        0.8211935431   -0.8735078408    1.7630495825
C        0.0069778339   -1.3281995419    0.5435374889
C        0.0483820040   -2.8572746006    0.4075238500
C        0.5185653239   -0.6264372808   -0.7507610420
C       -0.4045011312    0.4657709746   -1.2229479383
C       -0.1750983822    1.7879811731   -1.2418399607
C        1.0751156826    2.5083344018   -0.8113126385
H        0.8051835897    0.2177543435    1.8641177682
H        0.4260952713   -1.3024309520    2.6909562969
H        1.8677999612   -1.1872983812    1.6671279795
H       -1.0371507464   -1.0318324774    0.7023314427
H       -0.5730297372   -3.1993320455   -0.4279409935
H       -0.3124053332   -3.3485235605    1.3185274787
H        1.0729384573   -3.2047195326    0.2249379044
H        1.5326774618   -0.2494934105   -0.5919810273
H        0.5955224787   -1.3725682946   -1.5525571601
H       -1.3827192571    0.1217063569   -1.5629960930
H       -0.9766292645    2.4305844107   -1.6083802229
H        1.5115815771    3.0666885548   -1.6491130942
H        1.8403749710    1.8329516160   -0.4223451017
H        0.8469314157    3.2428718633   -0.0288555570
21   
torsion grid (-90,)
C        0.6821689476   -0.6229294918    1.7572371776
C       -0.0265328124   -1.2741012466    0.5615861384
C        0.2231196450   -2.7893055321    0.5506711832
C        0.4401054001   -0.6215981965   -0.7676103740
C       -0.4104165666    0.5559230392   -1.1647756026
C       -0.0720420103    1.8546869848   -1.1656183448
C        1.2561706168    2.4551672342   -0.7881427735
H        0.5373150009    0.4631640944    1.7598523476
H        0.3046683251   -1.0151130565    2.7083010634
H        1.7605744912   -0.8195550478    1.7179072366
H       -1.1064489952   -1.1070078566    0.6643004597
H       -0.3281333765   -3.2788097448   -0.2601790382
H       -0.0864966627   -3.2510167419    1.4952607516
H        1.2889925484   -3.0074574657    0.4082928249
H        1.4980389030   -0.3524217339   -0.6919553562
H        0.3716078435   -1.3699897582   -1.5685810439
H       -1.4308471830    0.3036192372   -1.4574545476
H       -0.8341307665    2.5718054359   -1.4733913723
H        1.6988380721    2.9889975199   -1.6386607505
H        1.9765144254    1.7084251068   -0.4471126009
H        1.1317533404    3.1919676956    0.0152368937
21   
torsion grid (-75,)
C        0.5439537323   -0.5450257180    1.7125837422
C       -0.0286537526   -1.3472007359    0.5363322976
C        0.4728417891   -2.7977134596    0.5726611989
C        0.3285125852   -0.6780708054   -0.8127598406
C       -0.4897577123    0.5555781372   -1.0903478813
C       -0.0846523527    1.8347820113   -1.0692167675
C        1.2982295719    2.3518515864   -0.7745129305
H        0.2075756707    0.4964387152    1.6846982459
H        0.2378508308   -0.9747800314    2.6729093676
H        1.6407084839   -0.5460295602    1.6808299985
H       -1.1234195891   -1.3612695458    0.6272253337
H        0.0245101245   -3.3961826021   -0.2284538551
H        0.2312816781   -3.2779483525    1.5276010040
H        1.5623147117   -2.8363099184    0.4483991938
H        1.4022283560   -0.4632789052   -0.8324094414
H        0.1435185478   -1.4007216812   -1.6190805236
H       -1.5423124981    0.3671824549   -1.3079780461
H       -0.8301722234    2.6013529050   -1.2844727682
H        1.6851726490    2.9348651894   -1.6196847506
H        2.0114157169    1.5532328165   -0.5599253119
H        1.2810498441    3.0258292955    0.0913003213
21   
torsion grid (-60,)
C        0.3350764240   -0.5267283568    1.7204758520
C       -0.0615779528   -1.3944985238    0.5191409515
C        0.6406800960   -2.7580125321    0.5633048988
C        0.2291604760   -0.6817412776   -0.8226738828
C       -0.5079634585    0.6206054956   -0.9885465032
C        0.0018046825    1.8617975004   -0.9953079788
C        1.4439261610    2.2632374880   -0.8370641344
H       -0.1845561287    0.4355762431    1.7081669787
H        0.0994598979   -1.0317766676    2.6638963390
H        1.4136543109   -0.3233091054    1.7122566900
H       -1.1458698620   -1.5691640100    0.5736376629
H        0.3347321715   -3.3933268504   -0.2757249484
H        0.4109392027   -3.2928558424    1.4915972612
H        1.7298848131   -2.6371632443    0.5107109563
H        1.3111356934   -0.5325929835   -0.9116064121
H       -0.0573227549   -1.3567059316   -1.6405603235
H       -1.5899913265    0.5260753113   -1.0972402650
H       -0.6974677460    2.6894675692   -1.1208343888
H        1.7829107979    2.8484397101   -1.7010018193
H        2.1128096593    1.4072854120   -0.7255846287
H        1.5698666139    2.9028241495    0.0457981236
21   
torsion grid (-45,)
C        0.1255275673   -0.5471465150    1.7348283047
C       -0.0934434794   -1.4292002273    0.4990783477
C        0.7937317481   -2.6797989459    0.5332974939
C        0.1218173686   -0.6581202514   -0.8288741394
C       -0.5226295437    0.7015126334   -0.8734871359
C        0.0830378000    1.8980354731   -0.9146441668
C        1.5609867603    2.1840800413   -0.9188981791
H       -0.5663297605    0.2988667181    1.7541301531
H       -0.0147381380   -1.1271440572    2.6540214275
H        1.1443269773   -0.1389587133    1.7500054859
H       -1.1418745177   -1.7610210026    0.5189511075
H        0.6324806619   -3.3085328125   -0.3500020130
H        0.5891360749   -3.2883257201    1.4211733680
H        1.8550417719   -2.4027931237    0.5564063392
H        1.2002221284   -0.5672198400   -1.0012816199
H       -0.2682097893   -1.2724727796   -1.6511579885
H       -1.6143440591    0.6985041898   -0.8587366599
H       -0.5571604692    2.7808352380   -0.9393436778
H        1.8434398141    2.7607276095   -1.8085726990
H        2.1701532168    1.2779769395   -0.8978068369
H        1.8365741705    2.7929647492   -0.0484602064
21   
torsion grid (-30,)
C        0.0406085224   -0.4561219955    1.7785613765
C       -0.0363911467   -1.4017710107    0.5728727817
C        1.0052719646   -2.5235046328    0.6634384089
C        0.0837385204   -0.6704451523   -0.7982422516
C       -0.4376987441    0.7419441459   -0.8262861390
C        0.2768304447    1.8753391455   -0.8992674232
C        1.7741327760    2.0200610862   -0.9581009127
H       -0.7665134486    0.2808167134    1.7668763018
H       -0.0278587381   -1.0237253142    2.7137201169
H        0.9879629375    0.0969777284    1.7910376808
H       -1.0302698244   -1.8705016028    0.6057050395
H        0.9442789410   -3.1945323589   -0.2012378459
H        0.8646093995   -3.1264078289    1.5675638242
H        2.0205287221   -2.1085798865    0.6925014220
H        1.1396328420   -0.6692858488   -1.0900328344
H       -0.4362935327   -1.2680418545   -1.5572468765
H       -1.5229486231    0.8449789583   -0.7708927496
H       -0.2772339669    2.8148563867   -0.9062244995
H        2.0778117366    2.5695771354   -1.8578743051
H        2.2956304966    1.0605141788   -0.9570363962
H        2.1372574045    2.5982991288   -0.0988756823
21   
torsion grid (-15,)
C       -0.1757794379   -0.4123722367    1.7697340268
C       -0.0926238236   -1.4133748219    0.6094096677
C        1.1114292232   -2.3506524072    0.7692999668
C       -0.0729272169   -0.7461512035   -0.8088650651
C       -0.4846639711    0.7026973985   -0.8656474597
C        0.3218230422    1.7701376313   -0.9689640339
C        1.8258390150    1.7810191877   -1.0326305659
H       -1.0758275856    0.2057914857    1.7094772308
H       -0.1933425477   -0.9448361601    2.7277127417
H        0.6858701144    0.2651529123    1.7769046593
H       -0.9985205136   -2.0316313643    0.6661978067
H        1.1602772714   -3.0796374395   -0.0477766208
H        1.0627055654   -2.9059030809    1.7129394266
H        2.0488503898   -1.7803934149    0.7644958097
H        0.9385694299   -0.8422364384   -1.2160106535
H       -0.7174465266   -1.3274244957   -1.4784600671
H       -1.5565635284    0.8966362415   -0.8061289950
H       -0.1493594433    2.7534032318   -0.9969191693
H        2.1757335377    2.2849773055   -1.9422175839
H        2.2591435255    0.7785943504   -1.0131324086
H        2.2412261285    2.3397241353   -0.1841452509
21   
torsion grid (0,)
C       -0.3498720377   -0.5518938280    1.7996271634
C       -0.0903752970   -1.4331660018    0.5691927769
C        1.2532700675   -2.1634015521    0.7130338945
C       -0.1415765173   -0.6588732948   -0.7973670801
C       -0.4336247000    0.8179225665   -0.7137925604
C        0.4406254282    1.8264088090   -0.8536743035
C        1.9218885644    1.7278323561   -1.1041243672
H       -1.3300790760   -0.0665953785    1.7570604910
H       -0.3171005665   -1.1583638154    2.7120087910
H        0.4041521814    0.2371885982    1.8894778906
H       -0.8781774374   -2.1963275692    0.5466959795
H        1.4346175389   -2.8366845935   -0.1325280794
H        1.2869969608   -2.7604997517    1.6316198875
H        2.0810349390   -1.4442149431    0.7518615293
H        0.8051001772   -0.8140196516   -1.3220442082
H       -0.9085384212   -1.1199048759   -1.4311205560
H       -1.4709103091    1.0861994377   -0.5118378360
H        0.0523616102    2.8421468065   -0.7684729608
H        2.1988437826    2.2516576806   -2.0275716645
H        2.2710101388    0.6958493896   -1.1828352009
H        2.4812318124    2.2077083423   -0.2909064822
21   
torsion grid (15,)
C       -0.6375573777   -0.7974189138    1.7089957935
C       -0.2201429050   -1.5835461274    0.4573057191
C        1.2239536075   -2.0839079190    0.6271204120
C       -0.3492709312   -0.7679473203   -0.8750613184
C       -0.5105954734    0.7227415768   -0.7183914791
C        0.4034210939    1.6717515746   -0.9741685212
C        1.8157792889    1.4779414336   -1.4585837226
H       -1.6749024340   -0.4494601381    1.6506959348
H       -0.5509312566   -1.4297149421    2.5997939571
H        0.0001846656    0.0805641233    1.8522442322
H       -0.8705240283   -2.4626960515    0.3759080979
H        1.5315001570   -2.7124383501   -0.2163386040
H        1.3379066926   -2.6727865236    1.5445921531
H        1.9195347785   -1.2375652304    0.6859470716
H        0.5059104315   -0.9955408665   -1.5164986554
H       -1.2317376137   -1.1320174906   -1.4170521803
H       -1.4821865513    1.0549565579   -0.3535507090
H        0.1076825960    2.7093432968   -0.8133622776
H        1.9763470280    1.9944017140   -2.4133200580
H        2.0761965154    0.4260247086   -1.5950293907
H        2.5293643819    1.9084539346   -0.7446637707
21   
torsion grid (30,)
C       -0.8513415294   -0.9502620810    2.0115083603
C       -0.2992370030   -1.6200240782    0.7447566033
C        1.2155528594   -1.8343203900    0.9004094211
C       -0.5933172041   -0.8127000907   -0.5566608487
C       -0.6846402092    0.6812367245   -0.3754171168
C        0.2212381105    1.6028607705   -0.7383624603
C        1.5513196538    1.3674960575   -1.4035111009
H       -1.9297185452   -0.7646176613    1.9415325818
H       -0.6814717107   -1.5884930728    2.8857566095
H       -0.3573756657    0.0093418558    2.1933196751
H       -0.7713200689   -2.6043935031    0.6368601882
H        1.6312102726   -2.3866120936    0.0499115141
H        1.4474197977   -2.3966881949    1.8121990721
H        1.7355632772   -0.8707562591    0.9619591500
H        0.1500649646   -1.0739478103   -1.3147885325
H       -1.5607059353   -1.1483052914   -0.9544653206
H       -1.5914032182    1.0395771430    0.1106891541
H       -0.0159420798    2.6479102038   -0.5343782990
H        1.6070017867    1.8966585423   -2.3631637927
H        1.7509830755    0.3097136470   -1.5876025030
H        2.3672220992    1.7574868568   -0.7818783223
21   
torsion grid (45,)
C       -0.8340635734   -1.1019174650    2.0742472749
C       -0.1582727762   -1.5770307574    0.7800480867
C        1.3661008542   -1.6214389226    0.9652553300
C       -0.5378892321   -0.7018318026   -0.4452828960
C       -0.4959718798    0.7837958799   -0.1896900126
C        0.4541014885    1.6505373965   -0.5741624092
C        1.7076853388    1.3488677255   -1.3513743644
H       -1.9216526804   -1.0218736011    1.9582924564
H       -0.6368734267   -1.8029504200    2.8928117299
H       -0.4552078735   -0.1204831129    2.3773703504
H       -0.5040880215   -2.5964723313    0.5640367165
H        1.8644359534   -2.0329133673    0.0800484037
H        1.6423519250   -2.2424274797    1.8250042662
H        1.7640132497   -0.6149521477    1.1377475517
H        0.1042983513   -0.9755462742   -1.2879815997
H       -1.5629046936   -0.9607620265   -0.7435025246
H       -1.3334039244    1.1852250298    0.3801887605
H        0.3201597790    2.6976196353   -0.2991774523
H        1.7483555634    1.9445836941   -2.2718746400
H        1.7923617956    0.2950513323   -1.6245914957
H        2.5974535235    1.6130990696   -0.7658817046
21   
torsion grid (60,)
C       -0.9812180426   -1.2000350136    1.9053368695
C       -0.1368698248   -1.5011660772    0.6587908401
C        1.3627351265   -1.4212511084    0.9737810440
C       -0.5193454645   -0.5928011057   -0.5382724870
C       -0.3444757697    0.8827150878   -0.2807082344
C        0.6473410091    1.6753228146   -0.7161733586
C        1.8262147823    1.2855898620   -1.5672835326
H       -2.0537198811   -1.2432264985    1.6821672832
H       -0.7749301898   -1.9251041742    2.7004730989
H       -0.7601341046   -0.2034055821    2.3029454234
H       -0.3604824191   -2.5305580630    0.3462181117
H        1.9678584363   -1.6924626252    0.1011880245
H        1.6280661913   -2.1019492154    1.7905251401
H        1.6458051887   -0.4067654112    1.2742206190
H        0.0656372193   -0.9030588443   -1.4101630022
H       -1.5717189476   -0.7815406007   -0.7884524859
H       -1.1107039852    1.3455402692    0.3412265545
H        0.6143669532    2.7259623889   -0.4247572205
H        1.8758731518    1.9056676393   -2.4709469136
H        1.7986971170    0.2383334902   -1.8752463639
H        2.7648033625    1.4469299349   -1.0218947060
21   
torsion grid (75,)
C       -1.5647753271   -2.0218891069    0.2870118517
C       -0.1660295976   -1.4052241392    0.4227609864
C       -0.0428781970   -0.5710362372    1.7047756932
C        0.2220027790   -0.6036944452   -0.8475411998
C       -0.4701677555    0.7301593504   -0.9750626947
C       -1.5080249070    1.0376596301   -1.7687813800
C       -2.2301785793    0.1264227144   -2.7251167414
H       -1.6228494413   -2.6854321853   -0.5831515055
H       -1.8244812491   -2.6090172542    1.1751881666
H       -2.3255302232   -1.2422872093    0.1663265554
H        0.5531976963   -2.2329622340    0.4945860180
H        0.9485328522   -0.1104560911    1.7896248925
H       -0.1982212529   -1.1965717658    2.5907339669
H       -0.7892164167    0.2302137589    1.7294947649
H        1.3049692291   -0.4234612060   -0.8183445860
H        0.0371417559   -1.2276719989   -1.7274812540
H       -0.0818937097    1.5230504380   -0.3362298612
H       -1.8865046215    2.0598997204   -1.7277211306
H       -3.2857632438    0.0281372310   -2.4415515703
H       -1.8017421762   -0.8774209310   -2.7576907191
H       -2.2142536393    0.5376119062   -3.7421913441
21   
torsion grid (90,)
C       -1.4255629473   -2.1857737748    0.3254887964
C       -0.1115351659   -1.4125949498    0.5055285436
C       -0.1596216298   -0.4861918980    1.7264145983
C        0.2880165101   -0.6813880329   -0.8092617741
C       -0.2550761364    0.7193402307   -0.9413849345
C       -1.2752797335    1.1282944258   -1.7118700705
C       -2.1253022736    0.2870026402   -2.6265163202
H       -1.3437834220   -2.9189020705   -0.4845325222
H       -1.6980026085   -2.7236325356    1.2408247623
H       -2.2506230094   -1.5053142020    0.0815408761
H        0.6721859642   -2.1595128643    0.6926412541
H        0.7815983469    0.0612751967    1.8538001973
H       -0.3348178086   -1.0648244867    2.6401423238
H       -0.9658689921    0.2492482014    1.6352770274
H        1.3836048533   -0.6104451074   -0.8384883148
H        0.0006204619   -1.3004121872   -1.6637870885
H        0.2394011264    1.4730136039   -0.3293514934
H       -1.5333454709    2.1878297834   -1.6839399072
H       -3.1800469126    0.3385042152   -2.3280337972
H       -1.8320838686   -0.7649720871   -2.6273009568
H       -2.0722608962    0.6564955955   -3.6583527868
21   
torsion grid (105,)
C       -1.3055287880   -2.3240024830    0.4153633903
C       -0.1185599601   -1.3616184210    0.5690476778
C       -0.3731688319   -0.3302503370    1.6753436456
C        0.2637867650   -0.7325073586   -0.8119698338
C       -0.1529336731    0.7035178449   -1.0076181066
C       -1.1565279673    1.1633358095   -1.7710872338
C       -2.1176830706    0.3568282492   -2.6033504089
H       -1.0787535818   -3.1185698608   -0.3039966842
H       -1.5610628497   -2.7967254170    1.3707493678
H       -2.1969634494   -1.7924588591    0.0588447916
H        0.7387040460   -1.9696434482    0.8865058124
H        0.4901534245    0.3281441221    1.8227362466
H       -0.5713422149   -0.8354194758    2.6273194240
H       -1.2370962671    0.3001407420    1.4402681760
H        1.3562664369   -0.7668943323   -0.9130115131
H       -0.1298321178   -1.3629514367   -1.6135250435
H        0.4305535124    1.4410712147   -0.4572682099
H       -1.3111230874    2.2427659066   -1.8007197973
H       -3.1509554219    0.5380554031   -2.2812822486
H       -1.9338061461   -0.7179274891   -2.5395850718
H       -2.0618838144    0.6494883241   -3.6594165558
21   
torsion grid (120,)
C       -1.1411640627   -2.4665152078    0.4517087807
C       -0.1053426998   -1.3397632737    0.5809304218
C       -0.5866047987   -0.2791268881    1.5810779289
C        0.2572666267   -0.7692175511   -0.8372697412
C       -0.0270341558    0.6955587876   -1.0545630779
C       -1.0351833792    1.2326292824   -1.7590485093
C       -2.1361800392    0.5037792682   -2.4823626344
H       -0.7818359481   -3.2640383671   -0.2083975417
H       -1.3687445953   -2.9132268006    1.4264716909
H       -2.0804013527   -2.0830889053    0.0334146943
H        0.8069083108   -1.7847537543    0.9974955780
H        0.1628824712    0.5029166339    1.7404109126
H       -0.7951780345   -0.7427602307    2.5520105949
H       -1.5034640430    0.2083291749    1.2335277927
H        1.3278531598   -0.9299066130   -1.0130787970
H       -0.2578393986   -1.3624925585   -1.5974484726
H        0.6670655289    1.3878628080   -0.5779244239
H       -1.0834782393    2.3207935733   -1.8173739719
H       -3.1160043931    0.7946837857   -2.0827091932
H       -2.0525718750   -0.5820292422   -2.3979822381
H       -2.1425045401    0.7623953828   -3.5486470580
21   
torsion grid (135,)
C       -0.9824621793   -2.5593974240    0.5703652449
C       -0.1050410504   -1.2991269853    0.6075505553
C       -0.7988834075   -0.2115755523    1.4415801174
C        0.2426959231   -0.8484651087   -0.8551233198
C        0.1101029083    0.6245006650   -1.1472616545
C       -0.8908518614    1.2328074163   -1.8019179629
C       -2.1275333266    0.5985634354   -2.3804696866
H       -0.5097222384   -3.3620631928   -0.0076024394
H       -1.1761499416   -2.9416255776    1.5791557532
H       -1.9506107332   -2.3377969159    0.1046591257
H        0.8332748932   -1.5525224041    1.1164340498
H       -0.1804506877    0.6850067952    1.5444480930
H       -1.0166474259   -0.5881804826    2.4476937654
H       -1.7455318606    0.0953367752    0.9834660619
H        1.2681900701   -1.1613242599   -1.0841053102
H       -0.3960096072   -1.4065961235   -1.5460905699
H        0.9160006271    1.2587400765   -0.7757440344
H       -0.8241013922    2.3142904374   -1.9266370516
H       -3.0277240054    1.0182336801   -1.9134391576
H       -2.1551783283   -0.4841919534   -2.2394074749
H       -2.2067646508    0.8033984975   -3.4554389261
21   
torsion grid (150,)
C       -0.7124162004   -2.5829718094    0.5830145067
C       -0.0223742840   -1.2131031701    0.5015254013
C       -0.8298903171   -0.1867256333    1.3108662509
C        0.1553256352   -0.8055971598   -0.9949794580
C        0.1367507964    0.6741035769   -1.2751953191
C       -0.8375835863    1.3790205280   -1.8703078407
C       -2.1562721470    0.8723450656   -2.3906814054
H       -0.1804622355   -3.3395971038   -0.0060123441
H       -0.7679208394   -2.9415900014    1.6170386522
H       -1.7361740823   -2.5174586652    0.1953613690
H        0.9720774485   -1.2928214523    0.9593713959
H       -0.3368322970    0.7886272977    1.3469108150
H       -0.9681393810   -0.5363523567    2.3404568844
H       -1.8227177703   -0.0343755349    0.8713475074
H        1.0949155386   -1.2344009693   -1.3651054532
H       -0.6400292846   -1.2882116668   -1.5721259592
H        1.0168478507    1.2288228946   -0.9452144600
H       -0.6769774614    2.4513246920   -1.9888101368
H       -2.9880985791    1.3693639424   -1.8753808627
H       -2.2807930488   -0.2047650276   -2.2600089113
H       -2.2675531300    1.0989614899   -3.4584180179
21   
torsion grid (165,)
C       -0.5922440236   -2.7440800570    0.7693547624
C       -0.0997096212   -1.2983651132    0.6100046469
C       -1.0606595301   -0.3404121980    1.3294027057
C        0.0448518074   -0.9599679359   -0.8980415321
C        0.1743025294    0.5079623280   -1.2057415755
C       -0.7072552822    1.2947244324   -1.8414410289
C       -2.0513373819    0.9108932536   -2.4003679462
H        0.0580747743   -3.4531980281    0.2434623649
H       -0.6265463503   -3.0395496965    1.8239029015
H       -1.6035554162   -2.8515173267    0.3590333363
H        0.8886763882   -1.2079283986    1.0808129025
H       -0.7016425192    0.6920685026    1.3069840061
H       -1.1891544306   -0.6357119959    2.3769414326
H       -2.0494425613   -0.3536798344    0.8541324015
H        0.9197392832   -1.4938496566   -1.2920211906
H       -0.8239541270   -1.3730111372   -1.4221269818
H        1.0950460873    0.9783676972   -0.8551622318
H       -0.4379270673    2.3439308438   -1.9695464853
H       -2.8456039315    1.5058573225   -1.9319260590
H       -2.2910952442   -0.1435220392   -2.2477022758
H       -2.0983542899    1.1156244393   -3.4773117581
21   
torsion grid (180,)
C       -0.4616441722   -2.6983547578    0.8720211342
C       -0.1509015236   -1.2220525907    0.5887037246
C       -1.2135200328   -0.3178354143    1.2283449032
C       -0.0424557766   -0.9855232763   -0.9366794679
C        0.2618303737    0.4400203790   -1.3133560423
C       -0.5426331013    1.3194289932   -1.9296998196
C       -1.9565569521    1.1009121917   -2.3976506981
H        0.2946728628   -3.3601951486    0.4343176346
H       -0.4990525870   -2.8970137161    1.9488915067
H       -1.4343667083   -2.9771080355    0.4484827588
H        0.8217453143   -0.9790971948    1.0393685745
H       -0.9922462911    0.7410026008    1.0672836972
H       -1.2791079217   -0.4943031510    2.3078122210
H       -2.2023372258   -0.5196871624    0.7970789135
H        0.7505065442   -1.6352685953   -1.3312257083
H       -0.9749202094   -1.3192219801   -1.4054812310
H        1.2558199332    0.7900535655   -1.0284861045
H       -0.1444500638    2.3181841020   -2.1133248499
H       -2.6394164786    1.7971427520   -1.8943017226
H       -2.3151881658    0.0872289032   -2.2070094138
H       -2.0455256236    1.2950990736   -3.4738176690
