18   
torsion grid (-165,)
C       -0.0814830808   -0.7674350458    0.1281977120
C        0.0797908369    1.3893643030   -0.0563836163
C        1.1037045211    0.2213724268   -0.0430787587
C       -0.9454861133    0.4391134303    0.5896174949
C       -3.2350083535   -0.0572776210    0.9210376301
N        1.9000735017    0.0576347304   -1.2604610068
O       -2.2634487634    0.5681891569    0.0967727411
H       -0.4184946522   -1.1162013242   -0.8523258931
H        0.0437069702   -1.6150387179    0.8088879690
H        0.3276083874    2.3142298030    0.4720311533
H       -0.2152206758    1.6119188388   -1.0857999254
H        1.7085076587    0.2546093709    0.8771955321
H       -0.9430800052    0.5334610414    1.6858348833
H       -4.2102093749    0.1236894900    0.4625549296
H       -3.2317280411    0.3671452904    1.9364476761
H       -3.0724156253   -1.1430562771    0.9934282007
H        2.4553385509   -0.7953546093   -1.1901631118
H        2.5674000725    0.8258679072   -1.3344066901
18   
torsion grid (-150,)
C       -0.0287580770   -0.8235402445    0.0633898952
C        0.0508753616    1.3406622553   -0.0457281249
C        1.1208469302    0.2147623776   -0.0445496945
C       -0.9480451622    0.3282469028    0.5507604392
C       -3.2700447490    0.0189273279    0.9678022100
N        1.9533837926    0.1233529933   -1.2452731561
O       -2.2663086303    0.4058970367    0.0419889431
H       -0.3329552624   -1.1445627603   -0.9369618367
H        0.1119230304   -1.6932801086    0.7125933194
H        0.2494680080    2.2601702391    0.5125160160
H       -0.2320508026    1.5796349810   -1.0749360712
H        1.7007241227    0.2403285302    0.8919888517
H       -0.9620505369    0.3873508301    1.6478767251
H       -4.2331656871    0.1511799613    0.4685923763
H       -3.2476366810    0.6464057401    1.8712339040
H       -3.1688543408   -1.0347865465    1.2679124391
H        2.5368958770   -0.7117039995   -1.1902420296
H        2.5944570485    0.9165166017   -1.2741381240
18   
torsion grid (-135,)
C        0.0142918289   -0.8743120792    0.0122090921
C        0.0155811983    1.2907040286   -0.0185447863
C        1.1263985864    0.2067820147   -0.0495160809
C       -0.9498908884    0.2188679579    0.5385316285
C       -3.2908903013    0.1015403685    0.9928754102
N        1.9697772440    0.1894028004   -1.2461521150
O       -2.2679734838    0.2311509490    0.0176620301
H       -0.2753976253   -1.1645761628   -1.0017126680
H        0.1800260442   -1.7652517900    0.6257876412
H        0.1797386140    2.1989455869    0.5692390550
H       -0.2733742076    1.5520780235   -1.0405655579
H        1.6988409151    0.2197658615    0.8919180315
H       -0.9725563677    0.2360685906    1.6356752479
H       -4.2446707567    0.1399845098    0.4605567583
H       -3.2606628877    0.9218124150    1.7252799288
H       -3.2251444005   -0.8555007637    1.5315128542
H        2.5835345408   -0.6250129329   -1.2163849230
H        2.5812514326    1.0060789668   -1.2414175821
18   
torsion grid (-120,)
C        0.0550097095   -0.9246920926   -0.0180655510
C       -0.0215302775    1.2361714409    0.0287463530
C        1.1272790789    0.1962870784   -0.0446236569
C       -0.9466665923    0.1067226828    0.5528245378
C       -3.2919373740    0.1802093816    0.9920157490
N        1.9660856016    0.2522077473   -1.2432767840
O       -2.2610351032    0.0468591968    0.0256281584
H       -0.2309981518   -1.1862206367   -1.0408386276
H        0.2532999410   -1.8325671550    0.5597765503
H        0.1166452276    2.1296885445    0.6456080499
H       -0.3273479938    1.5210895494   -0.9819224358
H        1.7025441151    0.1964502840    0.8952141242
H       -0.9704919496    0.0799879044    1.6496061268
H       -4.2417575105    0.1051948577    0.4565428490
H       -3.2510827934    1.1529301141    1.5043887616
H       -3.2465195005   -0.6187343809    1.7468951502
H        2.6069148309   -0.5416519564   -1.2456788959
H        2.5499152571    1.0881770069   -1.2095435091
18   
torsion grid (-105,)
C        0.0965718550   -0.9745966642   -0.0403966349
C       -0.0606747906    1.1786890227    0.0821148518
C        1.1248344131    0.1867137079   -0.0419886017
C       -0.9368716056   -0.0069924086    0.5762800526
C       -3.2703314543    0.2557086278    0.9536081402
N        1.9445347458    0.3154886295   -1.2480228492
O       -2.2455197466   -0.1323948281    0.0513848047
H       -0.1930873078   -1.2132638881   -1.0677250855
H        0.3359069553   -1.8927696814    0.5042458663
H        0.0562091994    2.0537691385    0.7292277075
H       -0.3909322461    1.4883170534   -0.9135058562
H        1.7121438365    0.1768954681    0.8902939716
H       -0.9540819729   -0.0741725215    1.6724833775
H       -4.2234423588    0.0890085752    0.4456194924
H       -3.1964455753    1.3188246511    1.2274634711
H       -3.2460753195   -0.3475927538    1.8733560681
H        2.6134261505   -0.4539212717   -1.2867390433
H        2.4982740161    1.1704850022   -1.1917414270
18   
torsion grid (-90,)
C        0.1349833215   -1.0187415241   -0.0352037514
C       -0.1024485679    1.1251744680    0.1603524626
C        1.1156228378    0.1832583879   -0.0265813329
C       -0.9232438778   -0.1127761674    0.6258615735
C       -3.2282609778    0.3389279378    0.9031718815
N        1.8950398493    0.3809737686   -1.2499729227
O       -2.2287308254   -0.2863010391    0.1125522279
H       -0.1659155872   -1.2463656591   -1.0617054896
H        0.4234042835   -1.9375585053    0.4834098050
H       -0.0000533312    1.9761274172    0.8409608890
H       -0.4646194401    1.4635027243   -0.8148083770
H        1.7293280954    0.1681405813    0.8883162478
H       -0.9269774867   -0.2131314974    1.7211088738
H       -4.1909969896    0.1259008637    0.4323179950
H       -3.0890690193    1.4293445389    0.9504163865
H       -3.2348164802   -0.0593172620    1.9291441799
H        2.5869616063   -0.3640679314   -1.3344842918
H        2.4223353152    1.2514795534   -1.1790467771
18   
torsion grid (-75,)
C        0.1560700389   -1.0600229921   -0.0417096676
C       -0.1531337991    1.0697730949    0.2274205484
C        1.0924503528    0.1772992813   -0.0189636644
C       -0.9139896907   -0.2129640342    0.6715582121
C       -3.1787062554    0.4091355879    0.8474984655
N        1.8321246331    0.4408862912   -1.2542552603
O       -2.2283847887   -0.4218135638    0.1989085963
H       -0.1606742649   -1.2689976006   -1.0673051058
H        0.4911658374   -1.9811565356    0.4432372158
H       -0.0634994077    1.8997176437    0.9347751245
H       -0.5460916665    1.4284786474   -0.7287484248
H        1.7293489010    0.1565082298    0.8796700724
H       -0.8814074873   -0.3394660619    1.7649577790
H       -4.1590486388    0.1628803750    0.4328223284
H       -2.9729113499    1.4750149165    0.6703357445
H       -3.1930264965    0.2306998058    1.9339112146
H        2.5484395536   -0.2748639534   -1.3791374695
H        2.3287057500    1.3280532828   -1.1692236784
18   
torsion grid (-60,)
C        0.1294270516   -1.0879314559   -0.0346114410
C       -0.2128835786    1.0289229937    0.3027276741
C        1.0432192720    0.1660255877    0.0040301566
C       -0.9311520280   -0.2801475998    0.7347126163
C       -3.1594272987    0.4916668826    0.7951028808
N        1.7509620240    0.4796323096   -1.2382881604
O       -2.2659739970   -0.5075186331    0.3292061373
H       -0.2123184245   -1.2699862994   -1.0572589953
H        0.4945693627   -2.0168602577    0.4119602823
H       -0.1253499015    1.8426706132    1.0284674013
H       -0.6269724015    1.4041173487   -0.6382661162
H        1.6995682730    0.1310950266    0.8879615062
H       -0.8458465877   -0.4258738455    1.8234624413
H       -4.1573663482    0.2184439645    0.4442369334
H       -2.8999821901    1.4839183989    0.4003144052
H       -3.1691122480    0.5441538263    1.8952752288
H        2.4718306853   -0.2232510168   -1.4035703103
H        2.2398381940    1.3691328096   -1.1347303216
18   
torsion grid (-45,)
C        0.1301646350   -1.0937534578   -0.0575323197
C       -0.2284907208    1.0033570389    0.3662432832
C        1.0318134296    0.1676836880    0.0096711741
C       -0.9060159852   -0.3293167873    0.7858317490
C       -3.1289142167    0.5140994852    0.7414950643
N        1.7096135249    0.5374986255   -1.2340183398
O       -2.2652140449   -0.5803428859    0.4778653911
H       -0.2444771254   -1.2298391344   -1.0759220702
H        0.5182726975   -2.0388880146    0.3319313828
H       -0.1396381732    1.8004940338    1.1096814509
H       -0.6616027458    1.3962721815   -0.5584892181
H        1.7066941891    0.1062539278    0.8778134903
H       -0.7450731986   -0.5012774889    1.8620099262
H       -4.1378861494    0.1915255030    0.4735980249
H       -2.8667234877    1.3967860302    0.1436757950
H       -3.1176116715    0.7957943483    1.8062039580
H        2.4257195836   -0.1572813560   -1.4473645194
H        2.2020157642    1.4213133928   -1.1020105645
18   
torsion grid (-30,)
C        0.1194654807   -1.0965547649   -0.0689166006
C       -0.2170799019    0.9806218445    0.4523220104
C        1.0269815424    0.1591244846    0.0148797066
C       -0.8765458517   -0.3663575567    0.8532860674
C       -3.1064026875    0.5095396959    0.6688736294
N        1.6554696538    0.5798944504   -1.2384922040
O       -2.2549850038   -0.6249753584    0.6325139758
H       -0.2978845480   -1.1872800385   -1.0758258743
H        0.5202139516   -2.0586902880    0.2619939064
H       -0.0999301153    1.7489095719    1.2217404183
H       -0.6777148391    1.4114545683   -0.4406642381
H        1.7351832831    0.0619407462    0.8525031983
H       -0.6514919352   -0.5785408344    1.9092284964
H       -4.1258263853    0.1360545789    0.5442079442
H       -2.8899556940    1.2174805826   -0.1414464538
H       -3.0422004456    1.0432525719    1.6292420574
H        2.3554874281   -0.1098243430   -1.5127724420
H        2.1610133525    1.4533470648   -1.0884462224
18   
torsion grid (-15,)
C        0.0936766747   -1.0896830178   -0.0690545540
C       -0.1900347715    0.9647977880    0.5545905974
C        1.0196395892    0.1505573946    0.0216374162
C       -0.8519449943   -0.3888895285    0.9316384473
C       -3.0732431265    0.5034430817    0.5699142020
N        1.5900917506    0.6187244726   -1.2428928285
O       -2.2451141088   -0.6301128828    0.7749937467
H       -0.3721140346   -1.1348503775   -1.0578925990
H        0.4978782209   -2.0692905513    0.2013124064
H       -0.0231631089    1.6963751936    1.3504729936
H       -0.6866700366    1.4445321117   -0.2922332708
H        1.7674226122    0.0106666108    0.8177962388
H       -0.5863012722   -0.6550596693    1.9634288929
H       -4.1033705131    0.1392302740    0.5986961264
H       -2.8991177942    0.9778502607   -0.4054648146
H       -2.9455461352    1.2592153857    1.3579802053
H        2.2630636628   -0.0683693960   -1.5834296536
H        2.1179994061    1.4766477009   -1.0806202000
18   
torsion grid (0,)
C        0.0557086995   -1.0683145529   -0.0605717911
C       -0.1587165810    0.9646437683    0.6491569637
C        1.0079650320    0.1507253365    0.0301612793
C       -0.8311633630   -0.3889900690    1.0117052935
C       -3.0337512019    0.4849571324    0.4873314611
N        1.5249241873    0.6565263552   -1.2432534741
O       -2.2350572499   -0.6019677155    0.9258295250
H       -0.4550609479   -1.0681295200   -1.0283552552
H        0.4519512501   -2.0652141337    0.1527132337
H        0.0595164587    1.6657519774    1.4603150830
H       -0.6855676884    1.4840602185   -0.1545398322
H        1.7907888422   -0.0305571226    0.7830713216
H       -0.5291066878   -0.7041618288    2.0171452343
H       -4.0716809446    0.1540485078    0.5756117377
H       -2.8421015123    0.7514028987   -0.5619960293
H       -2.8946459081    1.3792067882    1.1101687152
H        2.1689345985   -0.0276743672   -1.6407673312
H        2.0744545578    1.4998459928   -1.0763342009
18   
torsion grid (15,)
C        0.0089882246   -1.0371815184   -0.0513007589
C       -0.1167083033    0.9757167733    0.7342659953
C        0.9961945852    0.1539284248    0.0328557095
C       -0.8114229950   -0.3712941588    1.0833701070
C       -2.9877996523    0.4562940074    0.4152901146
N        1.4630749242    0.6891979131   -1.2478804218
O       -2.2220592747   -0.5420485945    1.0697783733
H       -0.5403029297   -0.9944662367   -0.9970478475
H        0.3873160247   -2.0502216200    0.1131225263
H        0.1587791711    1.6417432771    1.5576675011
H       -0.6643255644    1.5387989645   -0.0247320752
H        1.8098973644   -0.0723910242    0.7394384036
H       -0.4800692135   -0.7314600283    2.0624277830
H       -4.0305752403    0.1387468484    0.4935139215
H       -2.7321359095    0.5527866507   -0.6499723896
H       -2.8802476634    1.4384037011    0.8951951718
H        2.0690478987    0.0033080607   -1.6987117567
H        2.0415586093    1.5130755996   -1.0818371143
18   
torsion grid (30,)
C       -0.0494087318   -1.0049301715   -0.0516741141
C       -0.0772141388    0.9871977593    0.8047527490
C        0.9766632531    0.1543548181    0.0285227501
C       -0.8066361577   -0.3468640613    1.1322204984
C       -2.9585530878    0.4186033566    0.3477117165
N        1.4020007597    0.7170799940   -1.2551727006
O       -2.2198315867   -0.4548467097    1.1875865216
H       -0.6219642553   -0.9240492319   -0.9806893156
H        0.3039246085   -2.0322495319    0.0754418483
H        0.2550874390    1.6094133438    1.6412874940
H       -0.6343766082    1.5996520343    0.0921260743
H        1.8137596335   -0.1190569338    0.6896098962
H       -0.4573008541   -0.7529605691    2.0856341001
H       -4.0031907345    0.1080140226    0.4276497205
H       -2.6522535071    0.3486672737   -0.7057032847
H       -2.8754891554    1.4647717941    0.6709482735
H        1.9827880124    0.0368708367   -1.7460057907
H        1.9958763174    1.5300231248   -1.0894789117
18   
torsion grid (45,)
C       -0.0947175158   -0.9622946484   -0.0661944895
C       -0.0314540719    1.0020172409    0.8619180623
C        0.9738191532    0.1580576220    0.0336910233
C       -0.8010162781   -0.3154454283    1.1562168717
C       -2.9555738758    0.3605219635    0.3080473924
N        1.3931436110    0.7465635418   -1.2403341251
O       -2.2104889950   -0.3539209350    1.2832219960
H       -0.6691994997   -0.8330233201   -0.9876971822
H        0.2242626708   -2.0046624419    0.0242368839
H        0.3403912755    1.5788368530    1.7139374165
H       -0.5827197849    1.6599464084    0.1853233339
H        1.8136700953   -0.1679850092    0.6668194087
H       -0.4366161337   -0.7675357292    2.0826673123
H       -4.0047185794    0.1082018037    0.4797137154
H       -2.6887662808    0.0731634786   -0.7176461497
H       -2.8330655952    1.4466523961    0.4130562932
H        1.9380169462    0.0620394174   -1.7651829295
H        2.0198953326    1.5315812979   -1.0618676160
18   
torsion grid (60,)
C       -0.1379361390   -0.9035893597   -0.0945793318
C        0.0184932451    1.0128058666    0.9213922760
C        0.9769233795    0.1679788099    0.0404265696
C       -0.7992361878   -0.2841373174    1.1673281044
C       -2.9655704799    0.2746062021    0.2626464365
N        1.4022906111    0.7969007709   -1.2122856000
O       -2.2036233945   -0.2509599462    1.3396010328
H       -0.7128302494   -0.7056749065   -1.0029901827
H        0.1399606441   -1.9609454061   -0.0579526166
H        0.4238538525    1.5321176132    1.7945244891
H       -0.5166857989    1.7244358504    0.2869316318
H        1.8114340086   -0.2207488774    0.6444872547
H       -0.4352566979   -0.7896722371    2.0660233121
H       -4.0034186071    0.2921907221    0.6036083092
H       -2.9011508418   -0.3551118164   -0.6344979783
H       -2.6658259693    1.2970851106   -0.0019255927
H        1.9312909052    0.1232513529   -1.7666680198
H        2.0454113510    1.5615074309   -1.0055684595
18   
torsion grid (75,)
C       -0.1835841789   -0.8414835430   -0.1181426799
C        0.0711906078    1.0235623972    0.9711541237
C        0.9803986591    0.1739529897    0.0433214992
C       -0.8000655173   -0.2424913142    1.1753293572
C       -2.9750288817    0.1963075808    0.2345584567
N        1.4163350180    0.8307157609   -1.1912456002
O       -2.1963484740   -0.1175734580    1.3796803223
H       -0.7561664793   -0.5793132875   -1.0112713138
H        0.0462871144   -1.9110031187   -0.1292248536
H        0.5093931783    1.4883877988    1.8587845379
H       -0.4499910311    1.7802373851    0.3769631947
H        1.8046853447   -0.2743388492    0.6194835600
H       -0.4482202131   -0.7989111198    2.0490093763
H       -3.9873489586    0.3921608948    0.5963268342
H       -3.0098048387   -0.6391280416   -0.4772058532
H       -2.6101902402    1.0911709210   -0.2887234661
H        1.9157028399    0.1588932273   -1.7745986419
H        2.0881664808    1.5643160180   -0.9645525185
18   
torsion grid (90,)
C       -0.0911232345   -0.6108958531    0.7289908768
C       -0.0492963350    1.4064784207   -0.0761104971
C        0.9850470297    0.2531702261    0.0157294912
C       -0.8350233864    0.7102512720    1.0620146367
C       -2.9896920585   -0.1603019075    0.3999781192
N        1.4675861406   -0.2724778641   -1.2630868358
O       -2.2490182343    0.8298859646    1.0960887145
H       -0.6141032557   -1.2061872384   -0.0231840396
H        0.2132945086   -1.2527419732    1.5610638015
H        0.2874943754    2.4338047899    0.0882570825
H       -0.5904809467    1.3390276007   -1.0252339950
H        1.7917771719    0.5171904089    0.7171139272
H       -0.4966894430    1.0910544671    2.0312370131
H       -4.0412407141    0.1205918026    0.4977224362
H       -2.8484678817   -1.1590885034    0.8342881753
H       -2.7365173867   -0.2003378740   -0.6694770354
H        2.0780978807   -1.0722087726   -1.0937893913
H        2.0444913166    0.4333209760   -1.7212290352
18   
torsion grid (105,)
C       -0.1409261705   -0.6016205530    0.6477295162
C       -0.0021538952    1.4369332385   -0.0795743622
C        0.9921442631    0.2499886106    0.0132056069
C       -0.8571434166    0.7303143926    0.9990759574
C       -3.0329606872   -0.1991915078    0.4690699508
N        1.5149373752   -0.2467465490   -1.2612312709
O       -2.2684692912    0.8971233067    0.9441431391
H       -0.6508806066   -1.1507938024   -0.1471518305
H        0.1078221960   -1.2831063103    1.4666716489
H        0.3602720880    2.4468941568    0.1317165646
H       -0.5124131272    1.4170810365   -1.0475306848
H        1.7745644558    0.4632180263    0.7580674563
H       -0.5519775386    1.0633596344    1.9978592637
H       -4.0807681263    0.0958388400    0.5670289693
H       -2.8654492008   -1.1082756921    1.0626422391
H       -2.8325244276   -0.4251311222   -0.5882095237
H        2.0941390884   -1.0698678800   -1.0938274540
H        2.1316336409    0.4561600884   -1.6692680482
18   
torsion grid (120,)
C       -0.1777572562   -0.6002203130    0.5567251808
C        0.0368145777    1.4555781040   -0.0813743804
C        1.0013797800    0.2460580301    0.0081883818
C       -0.8786137426    0.7344637942    0.9350060116
C       -3.0699709596   -0.2245194403    0.5494338978
N        1.5748450416   -0.2128990014   -1.2583795625
O       -2.2794916321    0.9303343315    0.7820144249
H       -0.6690864089   -1.0983731965   -0.2823764180
H        0.0189606725   -1.3235238288    1.3535462348
H        0.4130856618    2.4498844483    0.1757449714
H       -0.4412427949    1.4778454931   -1.0651022395
H        1.7513825054    0.4136703362    0.7969073317
H       -0.6165628331    1.0166472997    1.9629202975
H       -4.1115231951    0.1039401560    0.5937333677
H       -2.9122447788   -0.9972838015    1.3150298409
H       -2.8862202547   -0.6652032993   -0.4400853593
H        2.1265044426   -1.0557378528   -1.0960826220
H        2.2268204809    0.4900241189   -1.6073214491
18   
torsion grid (135,)
C       -0.2008831231   -0.6078410231    0.4539549990
C        0.0659888260    1.4656287947   -0.0797767248
C        1.0115233251    0.2422696205   -0.0043057117
C       -0.8990836845    0.7198714222    0.8695672912
C       -3.0990250065   -0.2304919131    0.6404249438
N        1.6361956145   -0.1669829259   -1.2636529135
O       -2.2820343988    0.9295408731    0.6216182395
H       -0.6685632867   -1.0473019595   -0.4307480585
H       -0.0497528269   -1.3772549394    1.2168037772
H        0.4457604873    2.4440839170    0.2284766916
H       -0.3796839657    1.5323784195   -1.0761604305
H        1.7276049024    0.3652223328    0.8233198599
H       -0.6881362512    0.9476381456    1.9239769864
H       -4.1287670317    0.1147330212    0.5189160641
H       -3.0210828561   -0.7760217091    1.5928912613
H       -2.8612647224   -0.9199213510   -0.1798024099
H        2.1705945402   -1.0233450917   -1.1150923392
H        2.3111704901    0.5420908048   -1.5510435272
18   
torsion grid (150,)
C       -0.2014794284   -0.6258898563    0.3613306538
C        0.0922490865    1.4694932644   -0.0644447561
C        1.0297131137    0.2384829078   -0.0108733488
C       -0.9168774211    0.6857265222    0.8019809675
C       -3.1143181693   -0.2244007576    0.7243359653
N        1.7009943873   -0.1132211187   -1.2634554037
O       -2.2764078957    0.8903200807    0.4608518151
H       -0.6435747745   -1.0205365139   -0.5581564753
H       -0.0798827133   -1.4290061678    1.0942581151
H        0.4625170683    2.4284765452    0.3094318709
H       -0.3097666418    1.5893539244   -1.0741016253
H        1.7143022969    0.3187150075    0.8482081526
H       -0.7712665954    0.8654616273    1.8778893795
H       -4.1271499313    0.0674044495    0.4364751170
H       -3.1127874760   -0.4933302157    1.7922948473
H       -2.8186534927   -1.1064392630    0.1414532353
H        2.2149537129   -0.9858184204   -1.1393678324
H        2.3986406645    0.5978742938   -1.4839745646
18   
torsion grid (165,)
C       -0.1935811465   -0.6641263475    0.2904843082
C        0.0803287347    1.4576554781   -0.0447465318
C        1.0326614416    0.2347431657   -0.0162558011
C       -0.9528844905    0.6203084194    0.7342275427
C       -3.1616621218   -0.2059369134    0.7929831627
N        1.7416302346   -0.0548415064   -1.2637476228
O       -2.2887127969    0.8027208171    0.3085157666
H       -0.6085442579   -1.0463936826   -0.6472210075
H       -0.0736796299   -1.4794688453    1.0100665535
H        0.4220655908    2.3983409428    0.3961088486
H       -0.2795303092    1.6286317944   -1.0630141990
H        1.6935515533    0.2884567838    0.8634535719
H       -0.8807983257    0.7699031389    1.8228221502
H       -4.1620582880    0.0303437364    0.4228209697
H       -3.1832855485   -0.2271180134    1.8939475730
H       -2.8712631964   -1.2018927153    0.4300074928
H        2.2583984651   -0.9289678682   -1.1648169599
H        2.4395813813    0.6701068265   -1.4320656515
18   
torsion grid (180,)
C       -0.1348253899   -0.7097966628    0.2046219237
C        0.0964691469    1.4321310383   -0.0539420798
C        1.0779328947    0.2297132141   -0.0325174957
C       -0.9421219978    0.5421049162    0.6528417490
C       -3.1896170187   -0.1319564335    0.8625084605
N        1.8321117561   -0.0005664462   -1.2657880787
O       -2.2647212292    0.7053953852    0.1859131922
H       -0.5113639893   -1.0763195161   -0.7551548389
H       -0.0178858254   -1.5402805498    0.9073440186
H        0.3947600146    2.3635187415    0.4353814292
H       -0.2242978654    1.6323067235   -1.0800875802
H        1.7099804390    0.2700390554    0.8688866745
H       -0.9111128557    0.6648599363    1.7467034594
H       -4.1782696567    0.0774159062    0.4472546692
H       -3.2024870282    0.0759508826    1.9436110477
H       -2.9572863370   -1.1966619057    0.7130929296
H        2.3624914475   -0.8680649943   -1.1819644690
H        2.5205378097    0.7429207203   -1.3853833165
