14   
torsion grid (-165,)
C       -1.7558271145   -0.9528795776   -2.2501841628
C       -1.4958250043    1.1779293663    0.5641557617
C        0.3480379458    1.2247146770    2.1998472587
N       -1.2308294234   -0.3716014128   -1.2356479630
N       -0.2476248653    0.8311352329    0.9318254090
N       -1.9106904340    0.6503427108   -0.6527432106
S       -2.5371513533    2.1561876014    1.4367096147
H       -1.1950744036   -1.7604245649   -2.7112760201
H       -2.7296897131   -0.6775872110   -2.6688666968
H        0.3483055682    2.3129382751    2.2988238573
H        1.3766697738    0.8585129218    2.2204275985
H       -0.2069236977    0.8056845989    3.0458786967
H        0.2198731399    0.1484117231    0.3446727209
H       -2.8810320953    0.8437099753   -0.8991855192
14   
torsion grid (-150,)
C       -1.7938766122   -0.9871874882   -2.2003912823
C       -1.4619948042    1.2056622865    0.5380977119
C        0.3463168546    1.2059309465    2.2127053021
N       -1.2272838060   -0.3813611124   -1.2246961994
N       -0.1992123861    0.9072628478    0.8968329253
N       -1.8260733565    0.7433599162   -0.7301398225
S       -2.5779187834    2.0243094114    1.4760668689
H       -1.3039856896   -1.8728339985   -2.5944901918
H       -2.7379777705   -0.6607173477   -2.6498135744
H        0.2963515021    2.2795788497    2.4088194482
H        1.3892278921    0.8826676462    2.2303752241
H       -0.2122669141    0.6891093826    3.0005616491
H        0.2986331375    0.2701054264    0.2837199715
H       -2.8102813805    0.9108934341   -0.9429676658
14   
torsion grid (-135,)
C       -1.8479531487   -1.0124151438   -2.1423247947
C       -1.4304319654    1.2353671506    0.5153311316
C        0.3398294237    1.2062011261    2.2285600061
N       -1.2424374767   -0.4060339342   -1.1918860951
N       -0.1534734088    1.0039525780    0.8740386636
N       -1.7379772639    0.8121651996   -0.7905063164
S       -2.6146398772    1.8901923006    1.4929568553
H       -1.4431045216   -1.9669171008   -2.4666476820
H       -2.7452576313   -0.6235476832   -2.6363876418
H        0.2143547822    2.2507338342    2.5225872954
H        1.4010235811    0.9496259874    2.2476416095
H       -0.2039983311    0.5820636982    2.9463311745
H        0.3860797384    0.4259598148    0.2380750483
H       -2.7150063145    1.0042625913   -1.0184359234
14   
torsion grid (-120,)
C       -1.9041132250   -1.0554017785   -2.1135271597
C       -1.4059172951    1.2234723831    0.4762237265
C        0.3160463870    1.2106031923    2.2398180519
N       -1.2686747155   -0.4711380423   -1.1697509032
N       -0.1247815000    1.0727116398    0.8595888744
N       -1.6322744049    0.8278186340   -0.8656499686
S       -2.6611364527    1.7228671963    1.4519110003
H       -1.6044728223   -2.0688790884   -2.3658457367
H       -2.7275418997   -0.5937082769   -2.6703038637
H        0.0848727697    2.2126540018    2.6081739578
H        1.3957844668    1.0517635385    2.2731705805
H       -0.1850306775    0.4840647241    2.8893276993
H        0.4820848154    0.5965260083    0.2011091150
H       -2.5838602510    1.0784364528   -1.1424811266
14   
torsion grid (-105,)
C       -1.9947676163   -1.0481106066   -2.0735489664
C       -1.3488049256    1.1917243539    0.4880231413
C        0.3514584096    1.2298381952    2.2746750540
N       -1.3180045040   -0.5225807451   -1.1249396286
N       -0.0670523794    1.1231165146    0.8855243549
N       -1.5052025030    0.8340190573   -0.8875460141
S       -2.6497976465    1.5413081397    1.4630543885
H       -1.8296799988   -2.1019578521   -2.2815893747
H       -2.7254955461   -0.4990053705   -2.6789846281
H        0.0642168074    2.2031022901    2.6809578844
H        1.4370276294    1.1225868327    2.3179408274
H       -0.1219946627    0.4528775830    2.8845595654
H        0.6000533437    0.8039229875    0.1925082044
H       -2.4137812393    1.1747066557   -1.2118941049
14   
torsion grid (-90,)
C       -2.0990747084   -1.0451645921   -2.0699334578
C       -1.3132243428    1.1206627551    0.4925668678
C        0.3515267346    1.2905718552    2.3062695040
N       -1.3976330331   -0.5956337085   -1.1013187103
N       -0.0387839340    1.1511328196    0.9124102572
N       -1.3913785953    0.7852050901   -0.9085613134
S       -2.6555772539    1.3256643466    1.4471140778
H       -2.0748706252   -2.1166095947   -2.2514674735
H       -2.7167554489   -0.4144774468   -2.7207473122
H       -0.0273446959    2.2325277780    2.7126008299
H        1.4414993226    1.2777786693    2.3649529375
H       -0.0613596496    0.4718781626    2.9048761131
H        0.6666060349    0.9620197323    0.2099598634
H       -2.2294084083    1.2280104411   -1.2963498898
14   
torsion grid (-75,)
C       -2.2145173792   -1.0300675363   -2.1122191135
C       -1.2754758465    0.9923277149    0.5113178778
C        0.3435065939    1.3637213255    2.3378426309
N       -1.5099718238   -0.6933996480   -1.1017754296
N       -0.0149499290    1.1454882596    0.9456478567
N       -1.2877208028    0.6700924413   -0.9063377395
S       -2.6410229052    1.0724530997    1.4469778586
H       -2.3491173793   -2.0925002764   -2.2990352409
H       -2.6848627917   -0.3118782558   -2.7954253921
H       -0.1375262633    2.2713212587    2.7136897083
H        1.4281253236    1.4661426009    2.4065017701
H        0.0101812995    0.5233261803    2.9554475148
H        0.7100318371    1.0185250791    0.2490138642
H       -2.0163619751    1.2369263921   -1.3521882798
14   
torsion grid (-60,)
C       -2.3212579236   -0.9870107020   -2.1902040333
C       -1.2290771259    0.8050425781    0.5647616151
C        0.3421916530    1.4731598749    2.3505560870
N       -1.6629862858   -0.7995426001   -1.1120974184
N        0.0115719214    1.1122935220    0.9813279133
N       -1.2115096519    0.4894654379   -0.8563036523
S       -2.5878739204    0.7925161369    1.5110156430
H       -2.6228679054   -2.0044882091   -2.4255488166
H       -2.5932989704   -0.1837121974   -2.8870472343
H       -0.2315019432    2.3522083344    2.6589537783
H        1.4103961702    1.6916979679    2.4048855453
H        0.0958205381    0.6533475359    3.0329460535
H        0.7467696049    1.0042366016    0.2922946041
H       -1.7559393525    1.2004311162   -1.3564891165
14   
torsion grid (-45,)
C       -2.3528142142   -0.8790540773   -2.3257688138
C       -1.3597835162    0.6008564519    0.7333069486
C        0.3517191900    1.5426065110    2.2563768698
N       -2.3077256589   -0.6742479838   -1.0633634108
N       -0.1202737629    1.1472037432    0.9345740449
N       -1.6267405379    0.4240236602   -0.6301467694
S       -2.4816458419    0.3597637653    1.9299209423
H       -2.9020160764   -1.7515164856   -2.6679777350
H       -1.8763048892   -0.2305368265   -3.0725648074
H       -0.3555978343    2.2444359260    2.7027640080
H        1.3228613506    2.0298745663    2.1399283741
H        0.4457217223    0.6820250946    2.9278306090
H        0.5943991244    0.9270576028    0.2504147888
H       -0.9899491908    0.8786472192   -1.2883985602
14   
torsion grid (-30,)
C       -2.4214511929   -0.8473242904   -2.3388381445
C       -1.3099766344    0.5548462789    0.7222636041
C        0.3220426453    1.5849607330    2.2745785665
N       -2.3385200918   -0.6654742847   -1.0744605709
N       -0.1024009363    1.1665997885    0.9436044721
N       -1.5131937582    0.3185752077   -0.6359169888
S       -2.4412993065    0.2653193297    1.9007016769
H       -3.0813571658   -1.6369408220   -2.6863535226
H       -1.8714159087   -0.2565857535   -3.0831263356
H       -0.4211536293    2.2609421457    2.7017246119
H        1.2754862858    2.1100018695    2.1769940526
H        0.4352998965    0.7319956288    2.9529078168
H        0.6393552491    0.9652982805    0.2827882748
H       -0.8978472929    0.7809258697   -1.3076494120
14   
torsion grid (-15,)
C       -2.4717840437   -0.8081530785   -2.3534726279
C       -1.2786809931    0.5103468899    0.7117448836
C        0.2796799977    1.6242037798    2.2807614571
N       -2.3526007143   -0.6709563259   -1.0865494943
N       -0.1028761766    1.1808180738    0.9448307128
N       -1.4082927862    0.1910086720   -0.6367415653
S       -2.4218281818    0.1968095778    1.8723173401
H       -3.2191104572   -1.5120423322   -2.7081468615
H       -1.8700389597   -0.2627353393   -3.0925548694
H       -0.4934209671    2.2790816216    2.6866385124
H        1.2165727593    2.1804818542    2.1966478679
H        0.4079623300    0.7818077210    2.9697781431
H        0.6627807114    0.9831345325    0.3102971806
H       -0.8430348945    0.7050146830   -1.3147520738
14   
torsion grid (0,)
C       -2.4951540932   -0.7702147583   -2.3638639050
C       -1.2635264739    0.4772137634    0.7088086072
C        0.2553527427    1.6448531111    2.2770104414
N       -2.3925010583   -0.6379475425   -1.0955667603
N       -0.1191400948    1.2010860559    0.9385997584
N       -1.3432927315    0.0840063503   -0.6256520161
S       -2.3961997251    0.1326702786    1.8707705672
H       -3.3251141728   -1.3633414388   -2.7371906636
H       -1.8009804070   -0.3242064708   -3.0887035720
H       -0.5416994489    2.2602351237    2.6973405379
H        1.1660539795    2.2427824778    2.1911439634
H        0.4268826687    0.8005012672    2.9544053917
H        0.6514345579    1.0483610632    0.2973147193
H       -0.7625476909    0.5840383404   -1.3019504597
14   
torsion grid (15,)
C       -2.5448313671   -0.2989954565   -2.6545725884
C       -1.0547492899    1.2522488990    0.1618455512
C        0.1562903946    1.4261654065    2.3145324879
N       -1.9799676267    0.6201361893   -1.9658095566
N       -0.4657392554    0.6507537996    1.2470565448
N       -1.5659953593    0.3003500586   -0.7154148634
S       -1.2028839973    2.8932288201   -0.0313497544
H       -2.8615844748   -0.0449458331   -3.6620083169
H       -2.7254568848   -1.3186228821   -2.2892757170
H        1.0026919584    2.0186503366    1.9493027110
H        0.4963565589    0.7289741755    3.0843164962
H       -0.5755230556    2.1112453644    2.7462756281
H       -0.0850530123   -0.2769520642    1.0974154055
H       -1.7296040994   -0.6453425595   -0.3656913677
14   
torsion grid (30,)
C       -2.4974803851   -0.3282499149   -2.6620825514
C       -1.1185000669    1.2743907098    0.1845248540
C        0.1871981837    1.4167977051    2.2843761651
N       -1.9884792083    0.6098551531   -1.9553400234
N       -0.4753522713    0.6591977511    1.2289244454
N       -1.7275540736    0.3405233300   -0.6512249839
S       -1.2724510144    2.9177606036    0.0178604105
H       -2.7023839301   -0.1091714854   -3.7059925418
H       -2.7370316470   -1.3284255421   -2.2777436695
H        1.0257675622    2.0069803530    1.8981725727
H        0.5469238731    0.7089470442    3.0352812681
H       -0.5254136752    2.1028029240    2.7459906414
H       -0.1102329896   -0.2702253390    1.0543432333
H       -1.8172307916   -0.6210363423   -0.3177326116
14   
torsion grid (45,)
C       -2.4250712741   -0.3522877024   -2.6583972434
C       -1.1719423404    1.3054533733    0.2081698186
C        0.2234783785    1.3910269579    2.2530414137
N       -1.9546773458    0.6020354981   -1.9472509530
N       -0.4799184892    0.6655477915    1.2017499327
N       -1.8618187040    0.3958588824   -0.6031157433
S       -1.3365962830    2.9510664585    0.0925061099
H       -2.5048136317   -0.1845042874   -3.7286535975
H       -2.7508492955   -1.3188531391   -2.2523415695
H        1.0460407032    1.9924697346    1.8505572661
H        0.6124510060    0.6624077931    2.9685414823
H       -0.4706819934    2.0637095266    2.7606800655
H       -0.1399437290   -0.2668673087    0.9959596741
H       -1.9292655216   -0.5664622378   -0.2641943427
14   
torsion grid (60,)
C       -2.2767067253   -0.2180078445   -2.6980727006
C       -1.2473017506    1.0836457679    0.3420035363
C        0.3132036268    1.4982041252    2.2125005017
N       -1.4317409988    0.2312328642   -1.8524740853
N       -0.3282377334    0.6490669948    1.2215570508
N       -1.6813847876   -0.0159674115   -0.5078580112
S       -1.8187469157    2.6337628545    0.2315935029
H       -2.0543022229   -0.0810556225   -3.7532580067
H       -3.2051290219   -0.7328995941   -2.4191681001
H        0.8755957491    2.3005225313    1.7240564660
H        0.9886084759    0.8848736680    2.8120356133
H       -0.4397181357    1.9593489903    2.8584308458
H       -0.0334491449   -0.3141003910    1.1103213792
H       -2.6729310632   -0.2006397120   -0.3213024449
14   
torsion grid (75,)
C       -1.9025857268   -0.4368124884   -2.5403293669
C       -1.3300218810    0.8872444682    0.5859562997
C        0.3446614807    1.3667449758    2.3354719899
N       -1.1855548723   -0.0753179633   -1.5474031044
N       -0.3613069057    0.4827180961    1.4220028369
N       -1.7453667936   -0.2072156946   -0.2762286578
S       -1.9329078941    2.4267148535    0.4712330942
H       -1.4533775182   -0.3851042989   -3.5289204536
H       -2.9358171341   -0.7946026731   -2.4496642526
H        0.8628180157    2.1559233548    1.7809355188
H        1.0675024194    0.7769910255    2.9022996168
H       -0.3617929376    1.8432552902    3.0212252950
H       -0.0759154124   -0.4853987747    1.3307993776
H       -2.7698016323   -0.2064700334   -0.3152722904
14   
torsion grid (90,)
C       -1.7954014871   -0.4686204173   -2.4861373897
C       -1.4390988009    0.8793548165    0.6653180377
C        0.3794793348    1.3453630005    2.2671579954
N       -1.1640769151   -0.1522267879   -1.4214718590
N       -0.3956402258    0.4693450662    1.4031876115
N       -1.8857610746   -0.1619302256   -0.2282836860
S       -2.0903341796    2.4060583663    0.6681975653
H       -1.2290108268   -0.5020765544   -3.4132927224
H       -2.8659079795   -0.7056187229   -2.5138617342
H        0.8214434526    2.1632991631    1.6886257341
H        1.1693065868    0.7579904135    2.7391891219
H       -0.2631112236    1.7825526910    3.0364971059
H       -0.0900026695   -0.4847565693    1.2513319470
H       -2.8895283937   -0.0362071324   -0.3877808260
14   
torsion grid (105,)
C       -1.7239442798   -0.5318054210   -2.4467901043
C       -1.5068202980    0.8885063674    0.7047570167
C        0.4019572549    1.3276098211    2.2037894010
N       -1.1620499473   -0.2252741352   -1.3402736908
N       -0.4091214332    0.4679092473    1.3556885038
N       -1.9840748796   -0.0838486445   -0.2285574220
S       -2.2058187989    2.3904278265    0.8509701488
H       -1.0813323053   -0.6718451173   -3.3119797449
H       -2.8064419935   -0.6567623695   -2.5677548705
H        0.7839099855    2.1841742912    1.6379144186
H        1.2362152702    0.7411246625    2.5935077752
H       -0.1962924994    1.7089880519    3.0353253351
H       -0.0502391479   -0.4412200452    1.0876081147
H       -2.9508381922    0.1452115810   -0.4728600230
14   
torsion grid (120,)
C       -1.6731950822   -0.6151171049   -2.4294111583
C       -1.5696073404    0.9082706117    0.7034532631
C        0.3755805012    1.3216242520    2.1597716826
N       -1.1763024276   -0.2965997209   -1.2947683815
N       -0.4303963412    0.4858611421    1.2820769506
N       -2.0598514340    0.0084280512   -0.2756063394
S       -2.3231364382    2.3668615902    0.9889268179
H       -0.9795721621   -0.8749213339   -3.2243903533
H       -2.7487340720   -0.6351849516   -2.6391858760
H        0.7227625588    2.2214696017    1.6396525938
H        1.2335727698    0.7372154289    2.4981400755
H       -0.2143432446    1.6344514947    3.0242809552
H       -0.0071589034   -0.3415225598    0.8759180920
H       -2.9831102132    0.3132744911   -0.5912721980
14   
torsion grid (135,)
C       -1.6715250599   -0.6766115675   -2.3841264428
C       -1.5777159910    0.9523875337    0.7187402240
C        0.3889428500    1.2998384156    2.1614860894
N       -1.2055796868   -0.3370842022   -1.2416313747
N       -0.4043712510    0.5227919896    1.2203048174
N       -2.0925084465    0.1320730562   -0.3015147095
S       -2.3727961375    2.3523750998    1.1600925100
H       -0.9687681782   -1.0613498007   -3.1177904924
H       -2.7295994173   -0.5959512685   -2.6569913593
H        0.6766639318    2.2669443864    1.7343835853
H        1.2842395065    0.7259035813    2.4092167210
H       -0.1846497159    1.4872911682    3.0720329100
H        0.0411474723   -0.2354639864    0.7141408290
H       -2.9795271432    0.4963953381   -0.6535162882
14   
torsion grid (150,)
C       -1.6727304534   -0.7569369844   -2.3645748365
C       -1.5726632651    0.9922570454    0.6924911977
C        0.3877464399    1.2829337780    2.1573184042
N       -1.2231271479   -0.3745241582   -1.2280662188
N       -0.3697886068    0.5786753357    1.1333774509
N       -2.0885319598    0.2398789929   -0.3668759043
S       -2.4325042334    2.3010153177    1.2783793053
H       -0.9798103161   -1.2552133513   -3.0363239363
H       -2.7081551441   -0.6060921953   -2.6886842482
H        0.6337407824    2.3017340206    1.8388859528
H        1.3077193140    0.7251514762    2.3444305164
H       -0.1920291376    1.3460403221    3.0811738569
H        0.0906782574   -0.1295993787    0.5711840666
H       -2.9600787267    0.6231848283   -0.7349248634
14   
torsion grid (165,)
C       -1.7005804182   -0.8388085858   -2.3545938512
C       -1.5979979083    1.0339261147    0.6466930438
C        0.3293262872    1.2645383152    2.1676275061
N       -1.2557248434   -0.3959624372   -1.2371886634
N       -0.3719592513    0.6513376632    1.0497816939
N       -2.0857856602    0.3498780227   -0.4608704378
S       -2.5328044657    2.2277465773    1.3564213173
H       -1.0291270680   -1.4428408978   -2.9575221894
H       -2.7120288915   -0.6407290362   -2.7250923612
H        0.5074940439    2.3289885715    1.9842585506
H        1.2848312418    0.7507119157    2.2922554077
H       -0.2558921826    1.1711145110    3.0862334736
H        0.1014691146   -0.0310116786    0.4672389798
H       -2.9716575746    0.6987532265   -0.8259317695
14   
torsion grid (180,)
C       -1.7364488775   -0.8752903850   -2.2876721493
C       -1.5098837457    1.1137533516    0.6405265028
C        0.4009612005    1.2320394113    2.1942910939
N       -1.2404695927   -0.3666495104   -1.2200523860
N       -0.2722069968    0.7298611967    1.0060911226
N       -1.9835290159    0.5248363963   -0.5213971069
S       -2.4753969311    2.2092800093    1.4610484572
H       -1.1262514588   -1.5880414319   -2.8340420932
H       -2.7327820927   -0.6281407265   -2.6691348870
H        0.5173650736    2.3186920510    2.1456901834
H        1.3854818087    0.7629305698    2.2504055110
H       -0.1693904542    0.9911722548    3.0962401928
H        0.1892611656    0.0552560020    0.4055103871
H       -2.9187779184    0.8022457993   -0.8166677234
