23   
torsion grid (-165,)
C       -2.2527671179   -0.5721184270   -0.0025097581
C       -1.8713758130   -1.9372862280    0.5616631168
C       -0.9073070046   -0.3902516058   -0.6840057226
C       -0.6195362526   -1.8986623684   -0.3739826348
C       -5.4959325973   -1.0038116158    2.7456766276
C       -5.6348077827    0.2976241470    0.0088064527
C       -4.3694652864   -0.2772431839    2.0107528372
N       -3.3172908414    0.1160045019   -0.1157266924
N       -4.4714277596   -0.4126698886    0.5454828609
H       -1.6107670196   -1.9219058821    1.6259218243
H       -2.6179429883   -2.7211821317    0.3979058006
H       -0.9407993510   -0.0812804961   -1.7327617406
H       -0.2422324225    0.2879085285   -0.1376867909
H       -0.7367576589   -2.5352548463   -1.2540462542
H        0.3403471451   -2.1174756593    0.0993445475
H       -5.5486596552   -2.0496624758    2.4266445557
H       -5.3091549045   -0.9793531722    3.8246256119
H       -6.4722706022   -0.5425447426    2.5726470640
H       -5.6072618590    0.2391660408   -1.0804676057
H       -6.5506801496   -0.1867278691    0.3553105713
H       -5.6538555841    1.3605313329    0.3032708640
H       -4.3511593704    0.7894473466    2.2980468329
H       -3.4160285855   -0.7079945667    2.3204570210
23   
torsion grid (-150,)
C       -2.2591315469   -0.5578686889    0.0074202343
C       -1.9595471061   -2.0062475405    0.3739114249
C       -0.8842074577   -0.3395780636   -0.6023274294
C       -0.6363020234   -1.8791367674   -0.4503987621
C       -5.5040044981   -0.8995695992    2.8551982516
C       -5.6123659356    0.1650123828    0.0162026016
C       -4.3946468378   -0.1644732503    2.1034359369
N       -3.2771109424    0.2036503804    0.0379201232
N       -4.4317834720   -0.4233508589    0.6525265328
H       -1.7983913907   -2.1635634573    1.4460567907
H       -2.7121493513   -2.7224328805    0.0316815058
H       -0.8773676907    0.0755283869   -1.6143743585
H       -0.2297232759    0.2699756181    0.0300475313
H       -0.6772202626   -2.4116368484   -1.4034153899
H        0.2793780295   -2.1613972530    0.0739394793
H       -5.4925675462   -1.9660612224    2.6083219675
H       -5.3532843892   -0.7918449144    3.9346140860
H       -6.4968802770   -0.5038804857    2.6228995926
H       -5.5392277563    0.0180606551   -1.0633831783
H       -6.5093483113   -0.3491059118    0.3697571324
H       -5.7088153603    1.2454634727    0.2171034943
H       -4.4448067313    0.9199858359    2.3084629958
H       -3.4253761515   -0.5141607942    2.4696414916
23   
torsion grid (-135,)
C       -2.2186367764   -0.5891436736    0.0404320203
C       -1.9792060198   -2.0847265418    0.2100460571
C       -0.8357845329   -0.3476644394   -0.5453641997
C       -0.6257949558   -1.8997478864   -0.5527331755
C       -5.5674327441   -0.8118901068    2.9278818872
C       -5.5114947470    0.0023210442    0.0038608111
C       -4.4426602423   -0.0835005243    2.1926115783
N       -3.1909793235    0.2104064106    0.2144865347
N       -4.3579145553   -0.4709940916    0.7732435727
H       -1.8703524640   -2.3900808468    1.2559124916
H       -2.7383904053   -2.7207117171   -0.2528506297
H       -0.8206729940    0.1625622491   -1.5128240376
H       -0.1697452876    0.1865995658    0.1403363889
H       -0.6365291296   -2.3299018641   -1.5569331797
H        0.2637071728   -2.2542255676   -0.0271896372
H       -5.4899934321   -1.8929401180    2.7733350727
H       -5.4988650644   -0.6099925782    4.0020548633
H       -6.5586087827   -0.4878964913    2.5974133534
H       -5.3576787767   -0.2419942674   -1.0499418141
H       -6.4108501774   -0.5163495878    0.3446374237
H       -5.6623197092    1.0915783743    0.0925612207
H       -4.5580481635    1.0101387638    2.2955948393
H       -3.4844634324   -0.3483107433    2.6503820396
23   
torsion grid (-120,)
C       -2.1040206719   -0.6288047585   -0.0167495868
C       -1.9758982167   -2.1476820727   -0.0489167016
C       -0.7085590769   -0.4145349661   -0.5847307708
C       -0.4815053242   -1.9598996401   -0.4726257433
C       -5.4667357174   -0.7090022625    3.0096795326
C       -5.2798890158    0.0139140475    0.0576826538
C       -4.3170769020   -0.0032447744    2.2910845281
N       -2.9688269087    0.2132910464    0.3793144835
N       -4.1695542783   -0.4520963423    0.8948225881
H       -2.1685107729   -2.6474724180    0.9038248443
H       -2.6104166611   -2.6116979702   -0.8107151869
H       -0.7225630438   -0.0383001647   -1.6129685075
H       -0.0542934342    0.2278872499    0.0115885409
H       -0.1879765711   -2.4588826814   -1.3987895500
H        0.2256881132   -2.2335219404    0.3139262602
H       -5.3704140756   -1.7954056164    2.9149629131
H       -5.4499379461   -0.4522127954    4.0741811228
H       -6.4459316845   -0.4164746278    2.6189839507
H       -5.0953546481   -0.2850524010   -0.9774146525
H       -6.2057031970   -0.4633075610    0.3881657254
H       -5.4020389370    1.1097611930    0.0901235399
H       -4.4407894131    1.0926718199    2.3409827020
H       -3.3767492935   -0.2408931922    2.7981979281
23   
torsion grid (-105,)
C       -2.0647552865   -0.6305197808    0.0480032411
C       -2.0044525839   -2.1375112781   -0.1721455065
C       -0.6779666584   -0.4038954817   -0.5349558917
C       -0.5146528012   -1.9595720782   -0.6153134482
C       -5.5458086217   -0.6187336959    3.0658148926
C       -5.1523165711   -0.1500863938    0.0801582544
C       -4.3812406149    0.0873997839    2.3724357558
N       -2.8808921479    0.1888760859    0.5741689634
N       -4.0943107297   -0.4794944870    1.0424677031
H       -2.1972608888   -2.7346819954    0.7230368988
H       -2.6741326459   -2.4865766704   -0.9649776218
H       -0.7006398630    0.0928387306   -1.5105678991
H        0.0179640536    0.1358901225    0.1138239029
H       -0.2672510909   -2.3537247473   -1.6034562580
H        0.2000800552   -2.3545556328    0.1104185921
H       -5.3835830520   -1.7013164388    3.0843899905
H       -5.6299129054   -0.2650316945    4.0988077528
H       -6.5047085457   -0.4245351455    2.5758664411
H       -4.8786082678   -0.5411520345   -0.9033571969
H       -6.0832499562   -0.6322544890    0.3877529193
H       -5.3179735285    0.9371405169   -0.0076692953
H       -4.5675581619    1.1732572100    2.3049686027
H       -3.4740675330   -0.0437177736    2.9696503192
23   
torsion grid (-90,)
C       -2.0451801388   -0.6380561629    0.0730707315
C       -2.0594357278   -2.1082769372   -0.3274292464
C       -0.6554330657   -0.4096108256   -0.4988742592
C       -0.5493762974   -1.9587745701   -0.7064562980
C       -5.5578757803   -0.5722138788    3.1397171885
C       -5.0394893030   -0.2926213511    0.1274075059
C       -4.4171253541    0.1580061056    2.4320700014
N       -2.7981702983    0.1386755384    0.7405220885
N       -4.0286199343   -0.5000217561    1.1717141589
H       -2.3208577768   -2.7955027846    0.4822494133
H       -2.7098982474   -2.3218274700   -1.1826770959
H       -0.6700193985    0.1544687737   -1.4376878998
H        0.0633653630    0.0593744878    0.1792900567
H       -0.2764273899   -2.2846407195   -1.7126130320
H        0.1175604058   -2.4379620130    0.0140423230
H       -5.3112595031   -1.6301751833    3.2753421595
H       -5.7260685153   -0.1278613425    4.1264403371
H       -6.5018635173   -0.5094910642    2.5896285218
H       -4.7246958173   -0.7896784578   -0.7935211285
H       -5.9834218561   -0.7420263260    0.4442004190
H       -5.2040263780    0.7769377165   -0.0872735852
H       -4.6787940323    1.2164810508    2.2601283622
H       -3.5309035486    0.1492843211    3.0720323619
23   
torsion grid (-75,)
C       -2.0273979817   -0.6261882665    0.0912553703
C       -2.0851350723   -2.0349528918   -0.4891294194
C       -0.6055060446   -0.3986630629   -0.3929088994
C       -0.5444349833   -1.9269174629   -0.7324156141
C       -5.6308467817   -0.4792478066    3.1287627845
C       -4.9550655794   -0.4278350575    0.1256292492
C       -4.4866641669    0.2405640352    2.4160178545
N       -2.7449538325    0.0806787339    0.8681867824
N       -4.0019598970   -0.5022936728    1.2392190246
H       -2.4487163454   -2.7983162677    0.2060710017
H       -2.6622207691   -2.1076404307   -1.4178502557
H       -0.5553251683    0.2371412472   -1.2837887694
H        0.0957788925   -0.0138952253    0.3532241963
H       -0.1996817911   -2.1808706588   -1.7373335520
H        0.0361807800   -2.4952781566   -0.0021383609
H       -5.3454297472   -1.5081461946    3.3704127336
H       -5.8705960521    0.0408535065    4.0622397010
H       -6.5467093571   -0.5108821743    2.5303847514
H       -4.5979715702   -1.0189910540   -0.7194252401
H       -5.9117687844   -0.8489310509    0.4420349328
H       -5.1160512671    0.6103652898   -0.2113274558
H       -4.7860970377    1.2663587915    2.1388568242
H       -3.6354620818    0.3299173123    3.0947799382
23   
torsion grid (-60,)
C       -2.0269343850   -0.6627847040    0.1058058747
C       -2.1172969364   -1.9805818383   -0.6621839856
C       -0.5799796252   -0.4367460203   -0.3023353475
C       -0.5665838840   -1.9070593477   -0.8401500646
C       -5.6578690074   -0.3985778135    3.1591490553
C       -4.9092772879   -0.6056654315    0.1509430298
C       -4.5454512639    0.3036069983    2.3814410808
N       -2.7186829052   -0.0312122588    0.9679793706
N       -3.9992849000   -0.5345079271    1.2988551133
H       -2.5257959069   -2.8204176032   -0.0899228089
H       -2.6612230396   -1.9061464017   -1.6106982710
H       -0.4713359633    0.3077270097   -1.0990763765
H        0.1105885943   -0.1870080984    0.5085279835
H       -0.1959875982   -2.0427666195   -1.8587827411
H       -0.0366804594   -2.5916298849   -0.1737891304
H       -5.3120720662   -1.3690590301    3.5289813147
H       -5.9530433487    0.2139742274    4.0178049947
H       -6.5557027816   -0.5648728819    2.5553521332
H       -4.5869050400   -1.3688158918   -0.5581174606
H       -5.9044437828   -0.8859674192    0.5017436229
H       -4.9781464909    0.3618862579   -0.3740594674
H       -4.9002136201    1.2725277551    1.9888167697
H       -3.7103064286    0.5172877567    3.0508914598
23   
torsion grid (-45,)
C       -2.0245860876   -0.7055503998    0.1727263308
C       -2.1398282755   -1.9106308066   -0.7685043397
C       -0.5604150902   -0.4792886997   -0.1758294351
C       -0.5935465253   -1.8254635454   -0.9718151329
C       -5.6888617469   -0.2924845955    3.2026794574
C       -4.8711558637   -0.7704994640    0.2159773231
C       -4.5935529046    0.3673888329    2.3657740371
N       -2.7031261013   -0.1427394621    1.0934101462
N       -4.0055582321   -0.5537199804    1.3780656355
H       -2.5198029874   -2.8252602293   -0.3005339671
H       -2.7159386723   -1.7218362275   -1.6810564958
H       -0.3956609812    0.3973525182   -0.8123239661
H        0.1236273108   -0.4242093970    0.6765969370
H       -0.2586737326   -1.7702837838   -2.0102142308
H       -0.0546709636   -2.6316184353   -0.4686196797
H       -5.3031536529   -1.1889860347    3.6980334174
H       -6.0405821341    0.4048436629    3.9707324287
H       -6.5588347465   -0.5832012816    2.6048246049
H       -4.6018312490   -1.6821463157   -0.3182312700
H       -5.9016095986   -0.8844816963    0.5571316579
H       -4.8233421122    0.0797599572   -0.4844926959
H       -4.9802253444    1.2766240123    1.8733213417
H       -3.7726571852    0.6789503903    3.0133132673
23   
torsion grid (-30,)
C       -2.0986007208   -0.8197946326    0.2485537419
C       -2.2365070224   -1.8867174094   -0.8528944805
C       -0.6176264982   -0.6082875789   -0.0412699959
C       -0.7056938096   -1.7366795439   -1.1196152390
C       -5.8068023893   -0.1785451322    3.2161841061
C       -4.9298338959   -0.9800041648    0.3102172173
C       -4.6898982571    0.3897734979    2.3408849207
N       -2.7686993638   -0.3120840183    1.2085612030
N       -4.0928625194   -0.6187921056    1.4529269395
H       -2.5461595622   -2.8724960031   -0.4889892665
H       -2.8774823615   -1.6149245721   -1.6975047183
H       -0.3794159570    0.3825669974   -0.4433635590
H        0.0497092443   -0.8067615547    0.8037246864
H       -0.4497246252   -1.4218326971   -2.1339782753
H       -0.1276499463   -2.6303435428   -0.8734470074
H       -5.4377243713   -1.0236156943    3.8055562460
H       -6.1690581600    0.5933036233    3.9038885870
H       -6.6663765936   -0.5218795548    2.6313214099
H       -4.6489263888   -1.9526428821   -0.0943577581
H       -5.9680840207   -1.0489081929    0.6394535980
H       -4.8654551352   -0.2267107536   -0.4925884300
H       -5.0607732075    1.2513675597    1.7585171808
H       -3.8760448901    0.7544045265    2.9691901151
23   
torsion grid (-15,)
C       -2.0405202785   -0.9181009744    0.3409310703
C       -2.1892523012   -1.8323733437   -0.8940365143
C       -0.5456574702   -0.7348850538    0.1037306151
C       -0.6975819912   -1.5275740987   -1.2340266468
C       -5.8253749995    0.0010034432    3.1615267287
C       -4.8690438243   -1.2023176544    0.4455555425
C       -4.6532561774    0.4405883045    2.2832852194
N       -2.7123290583   -0.4428066560    1.3175239341
N       -4.0526975723   -0.6627211139    1.5260824234
H       -2.3698485707   -2.8821518852   -0.6354736422
H       -2.9218372483   -1.5336704856   -1.6483459813
H       -0.2104029296    0.3033703211    0.0125201252
H        0.0811956415   -1.2350138037    0.8505582850
H       -0.5792804601   -0.9029010503   -2.1227906159
H       -0.0549965378   -2.4053443018   -1.3340338785
H       -5.5207941942   -0.8132374915    3.8264117418
H       -6.1628867966    0.8428169002    3.7756309391
H       -6.6863143638   -0.3384200760    2.5766871136
H       -4.5011903228   -2.1823378923    0.1404392494
H       -5.8913617620   -1.3311420337    0.8057693639
H       -4.8913957716   -0.5369683835   -0.4338051865
H       -4.9718178138    1.2501841246    1.6026990487
H       -3.8525980888    0.8428487792    2.9060188265
23   
torsion grid (0,)
C       -3.4198278738    1.4945703224    0.0812089501
C       -4.1013361047    1.4326394862   -1.3036212877
C       -2.5253069648    2.6522211840   -0.3452799977
C       -3.0320788327    2.4500410096   -1.8088116274
C       -2.9938182790   -0.3954846892    3.7134872046
C       -5.2100044164   -0.6657477867    0.6361976136
C       -3.5939666883   -1.0610295223    2.4768427906
N       -3.4306530731    0.9292780278    1.2263429612
N       -4.2512326386   -0.1092602270    1.5805889550
H       -4.1220610563    0.4626706347   -1.8062024283
H       -5.1164991197    1.8459241804   -1.3067505174
H       -2.8246355632    3.6126510115    0.0901239817
H       -1.4536389964    2.5125682722   -0.1711071849
H       -3.4249468215    3.3405932215   -2.3048534709
H       -2.2835724779    1.9868497509   -2.4565313084
H       -3.7646814366    0.1515247476    4.2652710945
H       -2.5647293044   -1.1582601649    4.3723469361
H       -2.2088709818    0.3098869309    3.4352754473
H       -5.8032974623    0.1365883573    0.1954131656
H       -4.7440364835   -1.2506118039   -0.1743307144
H       -5.8891697138   -1.3248947722    1.1842366080
H       -2.8125346290   -1.6264995966    1.9385479674
H       -4.3576921716   -1.7841426328    2.7825583344
23   
torsion grid (15,)
C       -3.3859207934    1.4525160561    0.0138958364
C       -4.2097955291    1.5413074555   -1.2886941754
C       -2.4353013914    2.5558272820   -0.4378261617
C       -3.1558718526    2.5593414443   -1.8239654038
C       -3.1117147518   -0.3061923551    3.7367581277
C       -5.1114512225   -0.7521855447    0.5355325779
C       -3.6525058869   -1.0296851488    2.5063078155
N       -3.3655896965    0.8526496783    1.1401121194
N       -4.2579031358   -0.1134397879    1.5315938825
H       -4.3224958510    0.6212774775   -1.8682389081
H       -5.2033866583    1.9804076903   -1.1424237969
H       -2.5479919804    3.4882599695    0.1266898689
H       -1.3745446190    2.2849463341   -0.4475193938
H       -3.5600049665    3.5238796381   -2.1397039696
H       -2.5412759921    2.1549451695   -2.6319587000
H       -3.9074352953    0.2655156536    4.2248099691
H       -2.7151757822   -1.0353143189    4.4518105983
H       -2.3132171675    0.3851399812    3.4615127989
H       -5.7335468919   -0.0097736064    0.0348065238
H       -4.5358989141   -1.3064435601   -0.2248533450
H       -5.7743526633   -1.4546920451    1.0467966136
H       -2.8502656431   -1.6227130739    2.0337583390
H       -4.4370402750   -1.7310503712    2.8084360713
23   
torsion grid (30,)
C       -3.3284136532    1.3306102752   -0.0658692727
C       -4.2820664403    1.5742580251   -1.2497703179
C       -2.3296834274    2.3684907432   -0.5641529697
C       -3.3115492799    2.6963113475   -1.7354588407
C       -3.2763180920   -0.2308767603    3.7447917373
C       -5.0168043731   -0.8995005304    0.4356049118
C       -3.7506971881   -1.0327546586    2.5363548731
N       -3.2866189573    0.7018031290    1.0425562742
N       -4.2695885300   -0.1722731222    1.4609653479
H       -4.3935259540    0.7349776059   -1.9437067076
H       -5.2812686840    1.9192133352   -0.9625401533
H       -2.1302201713    3.1872399697    0.1348092722
H       -1.3706888134    1.9460395096   -0.8835925879
H       -3.7411299151    3.6993588957   -1.6832526860
H       -2.9013827046    2.5422528930   -2.7362215944
H       -4.0920513484    0.3818033019    4.1420039365
H       -2.9340363571   -0.9106358533    4.5328679531
H       -2.4520023408    0.4303622325    3.4708332691
H       -5.6402659902   -0.2226250859   -0.1485633585
H       -4.3499117836   -1.4484107381   -0.2505667697
H       -5.6771053407   -1.6168210369    0.9284262533
H       -2.9332907939   -1.6716743235    2.1607244775
H       -4.5705226213   -1.6936750526    2.8350297147
23   
torsion grid (45,)
C       -3.1983718006    1.3142601944   -0.1204795682
C       -4.2656259097    1.6789398711   -1.1593701687
C       -2.1974053418    2.3086019139   -0.6918445623
C       -3.3381179044    2.8500903661   -1.6150528593
C       -3.2876584908   -0.0057668841    3.7497762081
C       -4.8198525265   -0.9711254360    0.4175655086
C       -3.7083268163   -0.9060273227    2.5922114680
N       -3.1068242151    0.6522339235    0.9638386992
N       -4.1644564495   -0.1317964539    1.4243408942
H       -4.4247112274    0.9184967440   -1.9319370873
H       -5.2386082227    1.9599101555   -0.7419749653
H       -1.7678073269    3.0105541640    0.0294444512
H       -1.3800602744    1.8331170630   -1.2455399716
H       -3.7086404256    3.8297336307   -1.3045308304
H       -3.1098344811    2.8800449821   -2.6829481603
H       -4.1175019443    0.6406138349    4.0537348236
H       -2.9867623687   -0.6148445227    4.6093675451
H       -2.4462677110    0.6270519272    3.4596131480
H       -5.3915139842   -0.3681926958   -0.2881579603
H       -4.0925348865   -1.5795622008   -0.1458082537
H       -5.5200727555   -1.6403363133    0.9230286297
H       -2.8791634510   -1.5773208603    2.3119065629
H       -4.5493007184   -1.5337251659    2.9037630297
23   
torsion grid (60,)
C       -3.1675695830    1.2582569427   -0.1818838545
C       -4.3142499474    1.7639263267   -1.0556347627
C       -2.1698626191    2.2252844007   -0.7986622275
C       -3.3821530861    2.9440570521   -1.4808368825
C       -3.3923304412    0.0918894118    3.6722852749
C       -4.7296150247   -1.1124383915    0.3427616902
C       -3.7695741421   -0.8822973962    2.5605049534
N       -3.0300378987    0.5189475560    0.8447333485
N       -4.1590186991   -0.1831785267    1.3238361735
H       -4.5666734695    1.0973177122   -1.8881371451
H       -5.2335694976    2.0091370657   -0.5131096777
H       -1.5700654471    2.8053363911   -0.0910640437
H       -1.4979045328    1.7472998387   -1.5203050616
H       -3.6439766673    3.8828167071   -0.9872856373
H       -3.2939621706    3.1185604870   -2.5555870027
H       -4.2272997351    0.7651754853    3.8925943063
H       -3.1368458956   -0.4570100451    4.5854345096
H       -2.5304390522    0.6955358658    3.3782951227
H       -5.1617107389   -0.5730485955   -0.5007826537
H       -3.9775077884   -1.8226667324   -0.0401296652
H       -5.5335836399   -1.6765549534    0.8225873059
H       -2.9362254832   -1.5783448761    2.3658502560
H       -4.6331099126   -1.4790489388    2.8723518860
23   
torsion grid (75,)
C       -3.1472805612    1.2181849029   -0.1973196355
C       -4.3473665312    1.8521362526   -0.8917421596
C       -2.1593376970    2.1507225193   -0.8776637142
C       -3.3874957879    2.9906933966   -1.3681926497
C       -3.4755569352    0.1982868028    3.5935834269
C       -4.6276533867   -1.2676856321    0.3055009407
C       -3.8074484850   -0.8567484479    2.5426281514
N       -2.9619321460    0.3850291074    0.7454132798
N       -4.1471613951   -0.2481907543    1.2460029644
H       -4.7470352856    1.2529448337   -1.7175834245
H       -5.1727349445    2.1156487517   -0.2228615209
H       -1.4368266107    2.6415434278   -0.2191195621
H       -1.6166898592    1.6704245280   -1.6993908120
H       -3.5177385625    3.9140441204   -0.7990598785
H       -3.4131253056    3.2232095653   -2.4351750684
H       -4.3178816821    0.8849559723    3.7282662075
H       -3.2575641097   -0.2783441555    4.5556738173
H       -2.6007222261    0.7798875368    3.2915505113
H       -4.9400410519   -0.8037733707   -0.6320685819
H       -3.8589218321   -2.0270372529    0.0839962932
H       -5.4990280655   -1.7639021525    0.7420109808
H       -2.9655904331   -1.5610152643    2.4315345216
H       -4.6832103143   -1.4324254300    2.8612314406
23   
torsion grid (90,)
C       -3.1330718308    1.1974137134   -0.1881389892
C       -4.3510379369    1.9518033759   -0.7063043497
C       -2.1559574053    2.1044734049   -0.9181519548
C       -3.3690788538    3.0322960227   -1.2675887611
C       -3.5445387913    0.3205835192    3.4901685411
C       -4.5432230197   -1.4264024004    0.2926586061
C       -3.8347398040   -0.8196386597    2.5184380836
N       -2.9211628471    0.2582478169    0.6415899466
N       -4.1432810602   -0.3189376921    1.1695015904
H       -4.9027023281    1.4111281223   -1.4831102745
H       -5.0590745907    2.2541608920    0.0704868430
H       -1.3561319412    2.5282961109   -0.3039624450
H       -1.7076117703    1.6271825611   -1.7961609987
H       -3.3775452543    3.9561324992   -0.6845455137
H       -3.4871017404    3.2797166915   -2.3248848826
H       -4.3925972075    1.0119799977    3.5354934584
H       -3.3618770517   -0.0721360361    4.4964212975
H       -2.6593146180    0.8801111364    3.1756032498
H       -4.7904990827   -1.0424838704   -0.7004391643
H       -3.7522370493   -2.1878931409    0.1881012446
H       -5.4383277248   -1.8977508208    0.7092083959
H       -2.9818340195   -1.5189611094    2.4873919127
H       -4.7139415459   -1.3793702243    2.8562263779
23   
torsion grid (105,)
C       -3.1356849210    1.2401159848   -0.2320584949
C       -4.3415808739    2.1199345127   -0.5376868322
C       -2.1747135659    2.1501553772   -0.9816705847
C       -3.3530422524    3.1688266433   -1.1463234751
C       -3.5537976542    0.5025915137    3.3025958310
C       -4.4907315550   -1.5362554270    0.2628188885
C       -3.8119239396   -0.7217939821    2.4285071481
N       -2.9125301497    0.1949394072    0.4548101986
N       -4.1361595021   -0.3451919044    1.0432327835
H       -5.0294220259    1.6749421333   -1.2642237369
H       -4.9192726561    2.4175385445    0.3412447988
H       -1.3026657828    2.4819156725   -0.4107031871
H       -1.8286362493    1.7179454189   -1.9264715940
H       -3.2383626889    4.0597977273   -0.5245884918
H       -3.5654770702    3.4792096188   -2.1717398348
H       -4.4173538981    1.1758320222    3.2849992229
H       -3.3709359901    0.1999225059    4.3393944204
H       -2.6777810539    1.0546886894    2.9506516057
H       -4.7272291721   -1.2427665902   -0.7637310815
H       -3.6788040422   -2.2820844632    0.2359890101
H       -5.3819534062   -1.9919992992    0.7049299791
H       -2.9397667184   -1.3974993748    2.4537515642
H       -4.6753466950   -1.2755858446    2.8138698943
23   
torsion grid (120,)
C       -3.1432349712    1.2129964187   -0.2256078797
C       -4.2986310386    2.1958209132   -0.3760543119
C       -2.1644502895    2.1176301667   -0.9605812621
C       -3.3518120444    3.1025159534   -1.2300778197
C       -3.7229114930    0.5052778601    3.1020257268
C       -4.5266318735   -1.6995024093    0.1369772865
C       -3.9158448158   -0.7626730816    2.2738561777
N       -2.9786849497    0.0538567553    0.2669636058
N       -4.2128721908   -0.4644200865    0.8628321176
H       -5.1812418595    1.7906272235   -0.8781664171
H       -4.6186420033    2.6278447875    0.5768959634
H       -1.3772459110    2.5183815568   -0.3138276975
H       -1.6944597957    1.6675795349   -1.8399674014
H       -3.2079178490    4.1144808955   -0.8450867735
H       -3.6370244640    3.1645261263   -2.2827772837
H       -4.6034648118    1.1515060309    3.0254528733
H       -3.5705443114    0.2507831819    4.1565045423
H       -2.8490381350    1.0686750136    2.7623862144
H       -4.7325223600   -1.4611838743   -0.9102153855
H       -3.7046613665   -2.4335783967    0.1734667655
H       -5.4265608467   -2.1433582097    0.5738622110
H       -3.0244250798   -1.4085510749    2.3550631990
H       -4.7720166894   -1.3269003417    2.6600707817
23   
torsion grid (135,)
C       -3.1533147732    1.2089080261   -0.2340890670
C       -4.2445973032    2.2732451650   -0.2169141150
C       -2.1796204500    2.1049080309   -0.9844946349
C       -3.3581651535    3.1147957516   -1.1930657245
C       -3.8197231110    0.6076770759    2.9349185543
C       -4.5285671109   -1.8252301411    0.1238285768
C       -3.9413070596   -0.7089166796    2.1725232597
N       -3.0514197326   -0.0159060305    0.0890472793
N       -4.2559113464   -0.5237470044    0.7432685409
H       -5.2218174299    1.9352756853   -0.5710458194
H       -4.3750344830    2.7332078492    0.7672854943
H       -1.3837998082    2.4937004883   -0.3401630686
H       -1.7240820806    1.6654381359   -1.8762924311
H       -3.1595654488    4.1446255948   -0.8880829562
H       -3.7381123946    3.1156765061   -2.2173908932
H       -4.7390491468    1.1944275132    2.8425802617
H       -3.6406522705    0.4095754797    3.9973319066
H       -2.9845572208    1.2086199024    2.5636448381
H       -4.7254455929   -1.6822324010   -0.9418496093
H       -3.6883209285   -2.5305443210    0.2322835181
H       -5.4231113733   -2.2535157575    0.5865224704
H       -3.0165898413   -1.3004749514    2.2899843293
H       -4.7638401306   -1.2969405871    2.5942295019
23   
torsion grid (150,)
C       -2.9817456670    1.2618171898   -0.4350219580
C       -3.8464398769    2.4745858962   -0.1134564980
C       -2.1071523178    2.0375760123   -1.4062017492
C       -3.1160811167    3.2288175430   -1.2729025253
C       -4.6293792375   -0.4098791409    3.2043194092
C       -4.4414923261   -1.7080332052    0.4682981011
C       -3.5438388970   -0.1883511363    2.1513820275
N       -3.0005293280    0.0219100290   -0.1532683468
N       -4.0572015081   -0.3288341353    0.7765225906
H       -4.9217831884    2.2995459530   -0.2107102905
H       -3.6560574996    2.8991475449    0.8783647785
H       -1.1147634270    2.2615721103   -1.0002643280
H       -1.9861273309    1.5867880891   -2.3955176374
H       -2.6767558145    4.1936089941   -1.0097575953
H       -3.7432403529    3.3549892156   -2.1584665217
H       -4.9699468885   -1.4487079205    3.2386060330
H       -4.2382693153   -0.1609660324    4.1965582108
H       -5.4950456255    0.2291831915    3.0025756639
H       -4.7270685548   -1.7660437717   -0.5840899146
H       -3.6247169478   -2.4270047982    0.6499583653
H       -5.3084042853   -1.9868259685    1.0721420037
H       -3.1563667242    0.8295478929    2.2494577482
H       -2.6953327254   -0.8745574613    2.3239050944
23   
torsion grid (165,)
C       -3.0008838460    1.2601781594   -0.4603524699
C       -3.7087534248    2.5195181028    0.0299909389
C       -2.1866204193    2.0239828243   -1.4905837191
C       -3.1125457781    3.2567935378   -1.2129814939
C       -4.7337647583   -0.3772623765    3.0854100055
C       -4.3691370328   -1.8230408838    0.4432418996
C       -3.6426784714   -0.1338740552    2.0427204595
N       -3.1357303151    0.0044192730   -0.3040761664
N       -4.1058584072   -0.3995563236    0.6677176564
H       -4.7970798350    2.4281447519    0.1066438844
H       -3.3241387130    2.9045010729    0.9811244241
H       -1.1513031989    2.1930121856   -1.1739910274
H       -2.1817855620    1.6057271689   -2.5012856919
H       -2.6053754087    4.2031760642   -1.0119063748
H       -3.8524083946    3.4091428084   -2.0022183788
H       -5.0036757438   -1.4338149441    3.1677576782
H       -4.3826656108   -0.0515734588    4.0704352064
H       -5.6361594073    0.1892956253    2.8342936006
H       -4.6180408699   -1.9700459372   -0.6089575565
H       -3.5014492211   -2.4575246039    0.6910187161
H       -5.2254097223   -2.1358352899    1.0452721223
H       -3.3364527954    0.9120300866    2.0957759886
H       -2.7509085735   -0.7441994206    2.2728281295
23   
torsion grid (180,)
C       -3.0216699478    1.2703961975   -0.4478050012
C       -3.5120857684    2.5895809576    0.1547657850
C       -2.2702266874    1.9775744624   -1.5651783631
C       -3.0008077107    3.2951792012   -1.1418062649
C       -4.8098846893   -0.4296369417    3.0819620983
C       -4.2412550196   -1.8869515783    0.5465421034
C       -3.7807027460   -0.0031133747    2.0343775983
N       -3.2764933757    0.0269986715   -0.3404623777
N       -4.1413321978   -0.4305572903    0.6711279477
H       -4.5863200958    2.6335691074    0.3647906667
H       -2.9666691067    2.9018873243    1.0526924739
H       -1.1884015847    2.0194057081   -1.3948352715
H       -2.4525360892    1.5996479205   -2.5755124107
H       -2.3652878363    4.1706348071   -0.9895344072
H       -3.8144228190    3.5587757036   -1.8215852731
H       -4.8251222825   -1.5114904064    3.2387791468
H       -4.5688891145    0.0372336943    4.0428235495
H       -5.8143106601   -0.1094017447    2.7865743277
H       -4.4027944605   -2.1308907928   -0.5038347875
H       -3.3290666747   -2.4031674014    0.8911577320
H       -5.0948134008   -2.2509301702    1.1225791728
H       -3.7126408844    1.0835936659    2.0462109473
H       -2.7822058001   -0.3945342805    2.3007706536
