17   
torsion grid (-165,)
C       -0.0559626065   -0.6628620278    1.3547873386
C       -0.4031255914    2.3047096394    1.2166115790
C       -0.1474777196   -0.6332430643   -1.1679029846
C        1.1705955565   -0.0143555805   -0.7765409571
C       -0.0287462148    0.1373524346    0.1387180118
C       -1.4277388230    3.4035681729    1.4285157529
N       -0.1053546980   -1.3406649444    2.2996341640
N       -0.7097071441    1.4048884428    0.1998040870
O        0.6223779199    2.2068520947    1.8733068018
H       -0.7229456158   -0.1538565789   -1.9541044335
H       -0.2605913783   -1.7091390023   -1.0965391131
H        1.9712274945   -0.6622621585   -0.4375372681
H        1.4805918674    0.8951608979   -1.2789093780
H       -2.1158901002    3.0960322553    2.2234285270
H       -0.9133002582    4.3065743975    1.7598351258
H       -2.0108639725    3.6214959342    0.5289976755
H       -1.6800992800    1.3850695458   -0.0958340065
17   
torsion grid (-150,)
C       -0.1355772269   -0.7664659661    1.3363006450
C       -0.3838754842    2.3084971024    1.1512882628
C       -0.1028612896   -0.6105828732   -1.1961881997
C        1.1582359517    0.0425241191   -0.6998860828
C       -0.0913899516    0.0874065440    0.1586583721
C       -1.3878780043    3.4188186008    1.4003838640
N       -0.1985685276   -1.4683297470    2.2628785799
N       -0.8063304726    1.3294367497    0.2588039950
O        0.7171950462    2.2684769357    1.6800626560
H       -0.6651636736   -0.1119322950   -1.9794946890
H       -0.1670252607   -1.6931042537   -1.1905547979
H        1.9699088268   -0.5855147682   -0.3505631093
H        1.4522974483    0.9938073540   -1.1281749606
H       -1.9698876988    3.1743872902    2.2955760641
H       -0.8469190126    4.3461178350    1.5937039830
H       -2.0796173597    3.5636169101    0.5653945193
H       -1.7995538747    1.2881609206    0.0580818208
17   
torsion grid (-135,)
C       -0.2187884528   -0.8989539174    1.2958433438
C       -0.3788669554    2.3074974714    1.1057303650
C       -0.0530896402   -0.5567076964   -1.2207469446
C        1.1561240175    0.0852858763   -0.6063075730
C       -0.1393097965    0.0359569647    0.1849416286
C       -1.3647214908    3.4333482886    1.3617950250
N       -0.3069728146   -1.6597032462    2.1728685128
N       -0.8742913629    1.2567623687    0.3475200879
O        0.7701733874    2.3263168343    1.5241055171
H       -0.5906979455   -0.0121264909   -1.9905641790
H       -0.0892055714   -1.6379408781   -1.3001202418
H        1.9630679165   -0.5474458305   -0.2548415697
H        1.4509374269    1.0734533751   -0.9382338586
H       -1.6794319538    3.3882481055    2.4090637170
H       -0.8549183037    4.3868256170    1.2101697004
H       -2.2530453291    3.3908503694    0.7252966169
H       -1.8739736954    1.2136532468    0.1897507745
17   
torsion grid (-120,)
C       -0.2612156916   -1.0177764128    1.2618862249
C       -0.3606297942    2.3295453329    1.0559014347
C       -0.0334469243   -0.4971862901   -1.2209682599
C        1.1550454567    0.0996728262   -0.5325122385
C       -0.1598292957   -0.0045969111    0.2244377810
C       -1.3571087274    3.4465412136    1.3153212951
N       -0.3661819111   -1.8393406737    2.0804468748
N       -0.9008614735    1.1973759099    0.4704737000
O        0.8248456050    2.4280204126    1.3434303355
H       -0.5551601411    0.1023042691   -1.9603037815
H       -0.0677831277   -1.5700857110   -1.3787395611
H        1.9520303728   -0.5568377691   -0.2023036717
H        1.4621401058    1.1063178674   -0.7857996329
H       -1.5431284506    3.5015141473    2.3923058200
H       -0.9087110897    4.3934692969    1.0081489103
H       -2.3128525943    3.3131734616    0.8006285263
H       -1.9041628831    1.1532094888    0.3439171656
17   
torsion grid (-105,)
C       -0.3421548063   -1.1451051337    1.1806976356
C       -0.3532761857    2.3350168193    1.0549068122
C        0.0084003628   -0.3925766157   -1.2260608595
C        1.1809938366    0.0938700181   -0.4354749094
C       -0.1691356254   -0.0371495138    0.2574658110
C       -1.3656420315    3.4478514315    1.2736638718
N       -0.5028861692   -2.0439391281    1.9035033033
N       -0.9003074473    1.1474621555    0.6051260222
O        0.8445723239    2.4992515409    1.2497571231
H       -0.4640047042    0.2945108282   -1.9211196093
H       -0.0535009365   -1.4431125925   -1.4912026548
H        1.9391153554   -0.6214318942   -0.1367325294
H        1.5336698789    1.1068445886   -0.5760936976
H       -1.1742691102    3.9009443555    2.2486484874
H       -1.2069456847    4.2189314158    0.5138815541
H       -2.4070097562    3.1169232505    1.2282268575
H       -1.9046298643    1.1070289323    0.4870777044
17   
torsion grid (-90,)
C       -0.3992900119   -1.2031636811    1.1322377305
C       -0.3436304936    2.3787461486    0.9723020428
C        0.0375343242   -0.3277113343   -1.2137597552
C        1.2141190326    0.0533561563   -0.3703245477
C       -0.1575228152   -0.0488773230    0.2845058718
C       -1.3892159439    3.4465154506    1.2548257161
N       -0.6158748846   -2.1384520322    1.7914216110
N       -0.8679535136    1.1286627998    0.7069603947
O        0.8549588773    2.6346952245    0.9801736839
H       -0.3813348327    0.4250713230   -1.8743289990
H       -0.0693801141   -1.3552819923   -1.5460728190
H        1.9231398179   -0.7199239550   -0.0953579332
H        1.6203320487    1.0524796530   -0.4478336043
H       -1.0870962708    3.9938213655    2.1501908831
H       -1.3988323884    4.1558174317    0.4217565954
H       -2.3998502004    3.0537373123    1.3968085832
H       -1.8771131953    1.0558279111    0.6727654684
17   
torsion grid (-75,)
C       -0.4829176312   -1.2251630313    1.0717783769
C       -0.3655807115    2.4199189064    0.8477792341
C        0.1004867322   -0.2738512893   -1.2054087506
C        1.2595904423    0.0018903959   -0.2928762471
C       -0.1466593435   -0.0483892114    0.2916456809
C       -1.4141728535    3.4401423121    1.2643225999
N       -0.7753294004   -2.1761116381    1.6770396001
N       -0.8388336540    1.1280131926    0.7602540796
O        0.7915595930    2.7517082096    0.6097022065
H       -0.2375490053    0.5339009580   -1.8470450100
H       -0.0486969617   -1.2767552744   -1.5921112703
H        1.9070330210   -0.8250943077   -0.0212387893
H        1.7190598759    0.9801275758   -0.3195147665
H       -0.9850096579    4.0733637736    2.0436095650
H       -1.6406497760    4.0801461020    0.4062093143
H       -2.3443759772    2.9979073229    1.6316413209
H       -1.8349652561    1.0035664619    0.8904837783
17   
torsion grid (-60,)
C        0.0297335971   -0.6702160195    1.3366948567
C       -0.8867389997    2.3892355702   -0.5051128768
C       -0.1577997077   -0.7742386454   -1.1822857988
C        1.1055564202   -0.0228161511   -0.8512783337
C       -0.0877792137    0.0649952596    0.0926971274
C       -1.8517504394    3.4729872945   -0.0522112663
N        0.1041751411   -1.2686420498    2.3328655804
N       -0.8934505931    1.2553223346    0.2697247571
O       -0.1754017234    2.5341791658   -1.4967657150
H       -0.7835918604   -0.3597917826   -1.9658573817
H       -0.1844850484   -1.8533110286   -1.0721470848
H        1.9577051206   -0.5816843318   -0.4784959277
H        1.3217271686    0.8682594429   -1.4236245820
H       -1.2855844126    4.3961084768    0.0950191467
H       -2.5737499318    3.6542527101   -0.8530109863
H       -2.3910860647    3.2348656011    0.8686549583
H       -1.5669977179    1.2079188028    1.0225938788
17   
torsion grid (-45,)
C       -0.0606701621   -0.7434181035    1.3084428334
C       -0.9971951111    2.3107013027   -0.5623062622
C       -0.1133839774   -0.7079679650   -1.2141912369
C        1.1447868180    0.0020036708   -0.7780051369
C       -0.0983996581    0.0592777627    0.1033506631
C       -1.8433145808    3.4718554211   -0.0685980416
N       -0.0370214669   -1.3881634682    2.2778068909
N       -0.8821575237    1.2620983671    0.3131539323
O       -0.4690675728    2.3182745437   -1.6732399020
H       -0.6788302101   -0.2432314905   -2.0133053478
H       -0.1636052765   -1.7901355110   -1.1537575200
H        1.9742619942   -0.5846447729   -0.3966651417
H        1.3967256615    0.9153606932   -1.3002957396
H       -1.2303750414    4.3768767791   -0.0831720967
H       -2.6691416336    3.6226605342   -0.7687401887
H       -2.2487679774    3.3317145091    0.9371544236
H       -1.3433625470    1.3341623769    1.2098282228
17   
torsion grid (-30,)
C       -0.1315120051   -0.7847461448    1.2854240891
C       -1.0483852839    2.2800003998   -0.5839855391
C       -0.0862832727   -0.6583205842   -1.2360617823
C        1.1771198104   -0.0097844503   -0.7311719778
C       -0.0937623448    0.0599943423    0.1101779466
C       -1.8549233211    3.4637494948   -0.0776871354
N       -0.1630860517   -1.4581822302    2.2348673727
N       -0.8028501165    1.3037533683    0.3463435704
O       -0.6454476891    2.2176060386   -1.7445870512
H       -0.6053576309   -0.1551945152   -2.0413653541
H       -0.1734366846   -1.7395226898   -1.2037153372
H        1.9813492160   -0.6327979339   -0.3537031148
H        1.4695358840    0.9183552755   -1.2072782607
H       -1.2741264389    4.3750904431   -0.2413981341
H       -2.7665521319    3.5427116725   -0.6759908883
H       -2.1270838355    3.3980564606    0.9792823644
H       -1.1747163687    1.4266557023    1.2783095839
17   
torsion grid (-15,)
C       -0.2283455366   -0.8150323237    1.2447622671
C       -1.1621588196    2.2350426132   -0.6171597876
C       -0.0237168546   -0.6238996615   -1.2655401696
C        1.2226918075   -0.0245218553   -0.6724286369
C       -0.0954201878    0.0587890413    0.0971068860
C       -1.8642807955    3.4637356145   -0.0625860356
N       -0.3226783479   -1.5069122632    2.1766860419
N       -0.7600452021    1.3258662939    0.3289536056
O       -0.9676207775    2.0930419993   -1.8226778746
H       -0.4900357678   -0.0956740277   -2.0852570492
H       -0.1347180274   -1.7033780079   -1.2551579916
H        1.9940511329   -0.6761064682   -0.2752160368
H        1.5623870937    0.9153398311   -1.0944748974
H       -1.2961722186    4.3510125153   -0.3542711358
H       -2.8497570291    3.5360723210   -0.5298648118
H       -1.9851312176    3.4570843043    1.0241100917
H       -0.9185675173    1.5569647232    1.3004758867
17   
torsion grid (0,)
C       -0.3275845441   -0.8571204049    1.1905485092
C       -1.3216548999    2.1638565475   -0.6283864979
C        0.0598010810   -0.5731380234   -1.2907717006
C        1.2723124933   -0.0272460320   -0.5894652225
C       -0.0995969609    0.0570541027    0.0868538322
C       -1.8542234731    3.4697877810   -0.0590167584
N       -0.4863713053   -1.5800186151    2.0896033675
N       -0.7521846454    1.3272199203    0.3055321883
O       -1.4068936801    1.9069623314   -1.8257695100
H       -0.3544092000   -0.0088324916   -2.1144791206
H       -0.0703775591   -1.6495353735   -1.3285224564
H        1.9994222386   -0.7125047056   -0.1661627117
H        1.6649689753    0.9230630198   -0.9373381017
H       -1.3160611036    4.2991042317   -0.5261428744
H       -2.9062558135    3.5611440309   -0.3401807219
H       -1.7673559378    3.5535781694    1.0277311029
H       -0.6530539306    1.6940501609    1.2434270282
17   
torsion grid (15,)
C       -0.4068269527   -0.8968586270    1.1354390582
C       -1.4414492787    2.0957664117   -0.5940478078
C        0.1247320561   -0.5017685870   -1.3068718160
C        1.3116134305   -0.0317716563   -0.5153129542
C       -0.0945054803    0.0618351697    0.0888578042
C       -1.8454287785    3.4690372849   -0.0798129964
N       -0.6293372309   -1.6575818921    1.9885996895
N       -0.7167582980    1.3420702844    0.3074453146
O       -1.7533107874    1.7161781054   -1.7173993881
H       -0.2395907168    0.1101395572   -2.1204829835
H       -0.0342815052   -1.5695526674   -1.4109477195
H        1.9904951294   -0.7622998065   -0.0875190434
H        1.7552224784    0.9213108555   -0.7861002847
H       -1.3937867932    4.2284129686   -0.7240931752
H       -2.9301473637    3.5633713096   -0.1718492033
H       -1.5571845505    3.6627439801    0.9570272444
H       -0.4589736236    1.7963919588    1.1745286132
17   
torsion grid (30,)
C       -0.4815225276   -0.8996351597    1.0822934491
C       -1.5067882860    2.0495149403   -0.5445477808
C        0.1784275185   -0.4377436176   -1.3205816100
C        1.3502931414   -0.0615300012   -0.4610976751
C       -0.0742962293    0.0789037761    0.0862009122
C       -1.8635588490    3.4576954083   -0.0956776043
N       -0.7836585515   -1.6768628096    1.8951001087
N       -0.6367802469    1.3833771719    0.2975494659
O       -1.9655628056    1.5641188231   -1.5714823455
H       -0.1228189399    0.2232960881   -2.1218247575
H       -0.0297010378   -1.4894175124   -1.4827713034
H        1.9696076455   -0.8438105095   -0.0346055750
H        1.8558859199    0.8757453309   -0.6715754568
H       -1.5516794527    4.1606059670   -0.8728828529
H       -2.9508541281    3.5251194858   -0.0089848250
H       -1.4111414429    3.7524726515    0.8552029833
H       -0.2953699931    1.8855746164    1.1071452191
17   
torsion grid (45,)
C       -0.5605766259   -0.8672774643    1.0270995502
C       -1.5426010521    2.0203554535   -0.4984020364
C        0.2350877778   -0.3955299216   -1.3367416451
C        1.3855547118   -0.1049256521   -0.4183603894
C       -0.0517261929    0.1017732478    0.0694459473
C       -1.8937697305    3.4431424035   -0.0965010815
N       -0.9459243815   -1.6370870565    1.8112470725
N       -0.5395780713    1.4371107292    0.2545510749
O       -2.1033527283    1.4483824753   -1.4242616737
H        0.0043469816    0.3023648887   -2.1310465730
H       -0.0234407341   -1.4285550516   -1.5399047300
H        1.9386932992   -0.9314219018    0.0153276799
H        1.9528649629    0.8062056273   -0.5804581736
H       -1.7584796140    4.0938060565   -0.9643229244
H       -2.9522103608    3.4731794388    0.1749904900
H       -1.3009201520    3.8301903878    0.7368581261
H       -0.1634863551    1.9557109890    1.0379396384
17   
torsion grid (60,)
C       -0.6887679005   -0.8038306530    0.9359846714
C       -1.5481611456    2.0185467012   -0.5009055342
C        0.3302721150   -0.3775705922   -1.3555276980
C        1.4147862303   -0.1586605501   -0.3423481469
C       -0.0408401889    0.1288580886    0.0275302805
C       -1.9291794011    3.4260804725   -0.0766045121
N       -1.1889156508   -1.5430016562    1.6838860403
N       -0.4477198399    1.4968359262    0.1617395321
O       -2.1601036701    1.3950107405   -1.3571146166
H        0.2056649802    0.3411743840   -2.1558311345
H        0.0332688640   -1.3925996434   -1.5933739359
H        1.8790534609   -1.0204792561    0.1252127844
H        2.0488493867    0.7159392902   -0.4481464743
H       -2.2971943697    3.9680299293   -0.9490992550
H       -2.7463921132    3.3636208696    0.6495919299
H       -1.1026270217    3.9804178775    0.3774322962
H       -0.0815120007    2.0090527209    0.9550341249
17   
torsion grid (75,)
C       -0.7682667908   -0.7438902644    0.8559501693
C       -1.5892473783    2.0031466105   -0.4548179558
C        0.4061612057   -0.3886467592   -1.3766523381
C        1.4293681965   -0.1842249126   -0.2981717887
C       -0.0362162392    0.1496866811   -0.0273053830
C       -1.9566640547    3.4172010728   -0.0436196203
N       -1.3313397219   -1.4534550944    1.5873775811
N       -0.3845015222    1.5396056945    0.0590326639
O       -2.2877048170    1.3184779400   -1.1881753291
H        0.3551248607    0.3249011959   -2.1906199822
H        0.0995765496   -1.3990311934   -1.6222773625
H        1.8357838652   -1.0528946901    0.2084592211
H        2.0970705167    0.6680633624   -0.3753583947
H       -2.4602159496    3.9072968938   -0.8783226111
H       -2.6629076734    3.3671234204    0.7918825356
H       -1.0933863050    4.0136618121    0.2653052846
H        0.0278469926    2.0604028802    0.8247736620
17   
torsion grid (90,)
C        0.8932570163   -0.2399914079    1.3754677170
C       -1.2526234031    1.9085069571    1.1653737171
C       -0.4520906773   -0.7591085369   -0.7290864053
C        0.8593194169   -0.1745029481   -1.1627949624
C        0.2457804109    0.2492107400    0.1694274112
C       -1.4701729045    3.3945339259    1.3812637474
N        1.4498815934   -0.6281107338    2.3213003046
N       -0.2809752477    1.5868477036    0.2226250467
O       -1.8821916857    1.0459528747    1.7592006725
H       -1.3618580834   -0.3984226455   -1.1955178043
H       -0.4771299246   -1.7871225659   -0.3850122909
H        1.7472976276   -0.7954723051   -1.1187983329
H        0.8546057413    0.5783464423   -1.9450447979
H       -2.5274963331    3.5701109771    1.5850727811
H       -0.9013246418    3.7086681950    2.2629792024
H       -1.1546986663    4.0022265529    0.5282463593
H        0.3734091974    2.3236472331   -0.0184314432
17   
torsion grid (105,)
C        0.7680605278   -0.2593458645    1.3962460226
C       -1.2341263836    1.9223605989    1.2384297683
C       -0.4105093592   -0.7979862340   -0.8049198271
C        0.8986222600   -0.1420719419   -1.1275907393
C        0.1698973627    0.2236740270    0.1631993156
C       -1.4364365770    3.4182471836    1.3937448922
N        1.3047232814   -0.6616342370    2.3474472467
N       -0.4024447666    1.5479733666    0.1862386683
O       -1.7625770714    1.0951867417    1.9655052161
H       -1.2984549251   -0.4684999949   -1.3331288699
H       -0.4091437958   -1.8354778319   -0.4885835408
H        1.8101338155   -0.7210837502   -1.0296123908
H        0.9149852263    0.6225880615   -1.8986571978
H       -2.4540418778    3.6016309606    1.7416319677
H       -0.7471164219    3.7897494384    2.1596365269
H       -1.2599666478    3.9721007149    0.4671306430
H        0.2113847886    2.2779092193   -0.1604467794
17   
torsion grid (120,)
C        0.6531467159   -0.3113455661    1.4121829503
C       -1.2074991388    1.9414151165    1.3161995409
C       -0.3607390909   -0.8257517599   -0.8722853013
C        0.9318056241   -0.0950431609   -1.0806678894
C        0.0982426308    0.1906635511    0.1675106372
C       -1.4052733439    3.4450783639    1.3872127741
N        1.1790468188   -0.7595294608    2.3486417778
N       -0.5301860990    1.4943278976    0.1852202892
O       -1.6192748478    1.1724443720    2.1710579747
H       -1.2251092667   -0.5216865228   -1.4528769137
H       -0.3268023177   -1.8738253752   -0.5939912810
H        1.8635578363   -0.6305702110   -0.9374042628
H        0.9630280596    0.6924671017   -1.8286264311
H       -2.3661826876    3.6505181427    1.8610248297
H       -0.6201481488    3.8756089923    2.0180826762
H       -1.3697925790    3.9285776932    0.4066141655
H        0.0051692708    2.2119712839   -0.2916246138
17   
torsion grid (135,)
C        0.5408086283   -0.4048077818    1.4265710203
C       -1.1442002850    1.9720614339    1.4005702012
C       -0.3114289362   -0.8210471550   -0.9317716925
C        0.9692420740   -0.0433460528   -1.0180344197
C        0.0459351714    0.1578001594    0.1832757683
C       -1.3907179982    3.4707665369    1.3577796049
N        1.0412313697   -0.9505289809    2.3244466618
N       -0.6356776137    1.4365636871    0.2248363671
O       -1.3881228045    1.2858627116    2.3815769623
H       -1.1439204441   -0.5154691389   -1.5572312448
H       -0.2617645346   -1.8806780535   -0.7038819455
H        1.9067246114   -0.5578255628   -0.8392286302
H        1.0274256628    0.7781428846   -1.7275391937
H       -2.2736334461    3.6973206766    1.9570555781
H       -0.5354407884    3.9835866298    1.8107169925
H       -1.5304155577    3.8548289830    0.3429085800
H       -0.2530556731    2.1220894812   -0.4157796877
17   
torsion grid (150,)
C        0.3337012245   -0.5424802462    1.4301420605
C       -0.6178239799    2.2248374242    1.4537201980
C       -0.3111293732   -0.6612068244   -0.9801905034
C        1.1076663781   -0.1389356328   -0.9346051819
C        0.1434595769    0.1964681204    0.1929364682
C       -1.5237424766    3.4381179444    1.3184353547
N        0.5208811515   -1.3034629503    2.2904510321
N       -0.4048373568    1.5331646298    0.2753828994
O       -0.1091776016    1.8978164096    2.5160851240
H       -1.0048562926   -0.2005516125   -1.6790069676
H       -0.4884200254   -1.7134636029   -0.7886277597
H        1.9110725186   -0.8351588604   -0.7192592103
H        1.3696073687    0.6892419567   -1.5858174996
H       -2.5089448147    3.1868862510    1.7242594109
H       -1.1118566190    4.2488189512    1.9218991534
H       -1.6460435066    3.7807105952    0.2866635884
H       -0.9965667358    1.7845179055   -0.5061972447
17   
torsion grid (165,)
C        0.1746798101   -0.5456792394    1.3852717081
C       -0.4769016785    2.2785439819    1.3728968797
C       -0.2593091180   -0.6328862841   -1.0707720981
C        1.1535827174   -0.1170980274   -0.9104806847
C        0.1086684323    0.2079160377    0.1415642223
C       -1.5118608785    3.3892331334    1.4157970038
N        0.2180201297   -1.2648234556    2.2990107727
N       -0.4749263930    1.5316392340    0.2006441529
O        0.3062138427    2.0616286938    2.2847972437
H       -0.8900700132   -0.1583060176   -1.8178382510
H       -0.4564604208   -1.6853340783   -0.9025030095
H        1.9364420588   -0.8178645953   -0.6409903388
H        1.4620501892    0.7204492349   -1.5273495017
H       -2.3915853222    3.0313965715    1.9614114558
H       -1.0963967350    4.2343621466    1.9664152565
H       -1.8282036234    3.7203470341    0.4222868141
H       -1.3109535615    1.6317960882   -0.3638907034
17   
torsion grid (180,)
C        0.0470404625   -0.5863774668    1.3701862652
C       -0.4293222292    2.2977831031    1.2902625467
C       -0.2015504819   -0.6387047478   -1.1256191514
C        1.1709998579   -0.0719629898   -0.8480729563
C        0.0413069726    0.1801830452    0.1321037023
C       -1.4711452592    3.3919064170    1.4354432533
N        0.0288753331   -1.2697761444    2.3118840774
N       -0.5942065611    1.4762807569    0.1786349531
O        0.4949952269    2.1433322860    2.0735061026
H       -0.7983259658   -0.1663860799   -1.9007391703
H       -0.3638667583   -1.7028121708   -0.9979620999
H        1.9602839629   -0.7467205554   -0.5351156839
H        1.4887746806    0.7967200781   -1.4144335445
H       -2.2629465688    3.0399420438    2.1056723554
H       -1.0041949593    4.2637884759    1.8954099700
H       -1.9241925173    3.6783693846    0.4818207219
H       -1.5195357595    1.4997550228   -0.2367104190
