35   
torsion grid (-165,)
C        3.1437280051   -0.5208571534    4.0276149230
C        3.2678590985   -1.5042586081    5.0319682975
C        1.9257141035   -0.3103106912    3.4022240611
C       -0.4964331062   -0.9472869834    3.1961833206
C       -3.7379297973   -3.1997233733    5.0587966243
C        2.1782074219   -2.2805628572    5.4164809581
C       -4.7284145854   -3.8578767764    5.7712562831
C       -1.5514645333   -1.6900712693    3.6657076545
C       -2.0483185471   -4.0927097050    6.5839294795
C        0.7994302456   -1.0797114531    3.7748474803
C       -2.3844945790   -3.2970547101    5.4521962816
C        0.9550450441   -2.0481294774    4.7904998254
C       -4.4008593900   -4.6379411841    6.8935240034
C       -3.0273977194   -4.7534392645    7.3020150064
C       -1.3601736498   -2.6127567247    4.7234216185
C       -6.6767292496   -5.2492685320    7.3167985719
C       -1.4813575330   -5.6934658995    8.8571925222
O       -0.1075418270   -2.8339374316    5.1603257334
O       -5.2752721519   -5.3054056084    7.6423521863
O       -2.8235384009   -5.5235288828    8.3881789924
H        4.0097806509    0.0691809190    3.7450291594
H        4.2283381046   -1.6607133431    5.5137066341
H        1.8217847047    0.4413957870    2.6247956703
H       -0.6521455591   -0.2292585335    2.3951962409
H       -4.0310212156   -2.6154305090    4.1946773909
H        2.2611957756   -3.0444353312    6.1828778720
H       -5.7601039316   -3.7682329504    5.4538728632
H       -2.5441940276   -1.5478389127    3.2608019806
H       -1.0119285092   -4.1697402535    6.8822910741
H       -7.1691977972   -5.8636211489    8.0682755672
H       -6.8567870980   -5.6642693354    6.3206410571
H       -7.0443985012   -4.2206053756    7.3776060077
H       -1.5564933890   -6.3454962461    9.7261804134
H       -1.0472049014   -4.7322416849    9.1548582700
H       -0.8578452713   -6.1698379189    8.0921996266
35   
torsion grid (-150,)
C        3.0375808670   -0.3815395155    4.2317068891
C        3.1841597635   -1.4452469405    5.1465464139
C        1.8448653562   -0.2055055941    3.5480481286
C       -0.5024469460   -1.0042876347    3.1254342325
C       -3.7267010432   -3.2633091058    4.9653039865
C        2.1418243878   -2.3379147393    5.3858102597
C       -4.7146636721   -3.8392432668    5.7474208820
C       -1.5399636710   -1.8227144374    3.5019770451
C       -2.0163059611   -4.1489038850    6.4748965898
C        0.7652454825   -1.0887986482    3.7765504255
C       -2.3638893762   -3.3929485847    5.3191543944
C        0.9398290296   -2.1304463475    4.7143957391
C       -4.3757878998   -4.5726810554    6.8985277444
C       -2.9933659149   -4.7283965775    7.2621437261
C       -1.3423983385   -2.7810386497    4.5284293943
C       -6.6576087382   -5.0604405556    7.4380423316
C       -1.4292408592   -5.6624720485    8.8025270717
O       -0.0776146702   -3.0305005500    4.9161471279
O       -5.2474945924   -5.1591424826    7.7140367327
O       -2.7807311766   -5.4501722899    8.3790738741
H        3.8674908892    0.2969141944    4.0613979031
H        4.1248307088   -1.5735148714    5.6736216271
H        1.7271538015    0.6055041178    2.8348123679
H       -0.6597527990   -0.2453444253    2.3634041472
H       -4.0259921376   -2.7159727873    4.0792837171
H        2.2448066123   -3.1673390668    6.0780243922
H       -5.7534023890   -3.7232688474    5.4632296212
H       -2.5261066076   -1.6868147762    3.0783901933
H       -0.9726218027   -4.2547322838    6.7370160597
H       -7.1444332404   -5.6114762355    8.2405152033
H       -6.8932384700   -5.5209223834    6.4740731583
H       -6.9799062510   -4.0151070682    7.4550024400
H       -1.4981498817   -6.2686360503    9.7045800029
H       -0.9392576082   -4.7102962932    9.0356342263
H       -0.8610199429   -6.2035298170    8.0375659531
35   
torsion grid (-135,)
C        2.8812055933   -0.2899590490    4.4630417234
C        3.0524958378   -1.4109834093    5.3004625535
C        1.7289284396   -0.1513118786    3.7032685736
C       -0.5086003244   -1.0979277542    3.0405924939
C       -3.7050589388   -3.3239263342    4.8788526389
C        2.0752316375   -2.4020352213    5.3885146145
C       -4.6803896685   -3.8121276444    5.7309212689
C       -1.5213912284   -1.9864729503    3.3152184109
C       -1.9672593936   -4.2246423892    6.3526186274
C        0.7145072571   -1.1311260199    3.7820056287
C       -2.3333166338   -3.4998182773    5.1816761447
C        0.9081893707   -2.2267629394    4.6531668825
C       -4.3218454270   -4.5086289696    6.9006825804
C       -2.9324154637   -4.7176913754    7.2094395915
C       -1.3244450862   -2.9644578053    4.3277613478
C       -6.5971815215   -4.8608667046    7.5636571849
C       -1.3457259319   -5.6656136731    8.7175818154
O       -0.0463291579   -3.2169518910    4.6781852221
O       -5.1805886485   -5.0118521126    7.7806516978
O       -2.7037877306   -5.3985976418    8.3481960346
H        3.6611186351    0.4629863601    4.4097854771
H        3.9609840085   -1.5081961311    5.8873277852
H        1.5968884066    0.7029464813    3.0450645334
H       -0.6642841858   -0.3099612332    2.3082308188
H       -4.0159891008   -2.8021906249    3.9813141343
H        2.2019500582   -3.2784910201    6.0157283015
H       -5.7249845832   -3.6575764763    5.4897491255
H       -2.4930802716   -1.8702352018    2.8526832062
H       -0.9179796783   -4.3720802726    6.5682860010
H       -7.0688969454   -5.3507788342    8.4133205616
H       -6.8971748076   -5.3548128790    6.6349464754
H       -6.8713334386   -3.8020627309    7.5442080491
H       -1.4020779919   -6.2271227543    9.6488879010
H       -0.7961809335   -4.7320491597    8.8833124659
H       -0.8451085050   -6.2694933015    7.9525431777
35   
torsion grid (-120,)
C        2.6606822621   -0.2421262235    4.7172031036
C        2.8654259733   -1.4101560831    5.4772326239
C        1.5592073167   -0.1320723658    3.8785950115
C       -0.5366817957   -1.2000261151    2.9676198243
C       -3.6831199661   -3.3801874868    4.7946509137
C        1.9716821244   -2.4814843002    5.4118579125
C       -4.6373334240   -3.7815076571    5.7107605803
C       -1.5134042509   -2.1556861531    3.1295640955
C       -1.9183641390   -4.3026289651    6.2293010805
C        0.6288118392   -1.1906050886    3.8045030898
C       -2.3062284440   -3.6066517688    5.0465845319
C        0.8495581974   -2.3325745263    4.6083137003
C       -4.2550284749   -4.4446189109    6.8945589682
C       -2.8633235682   -4.7088425323    7.1505676796
C       -1.3168279030   -3.1500169429    4.1332147755
C       -6.5114314607   -4.6582919161    7.6748664322
C       -1.2550346895   -5.6682319361    8.6275217068
O       -0.0236135011   -3.3876752332    4.4513248298
O       -5.0932111085   -4.8662691859    7.8326588584
O       -2.6151549929   -5.3504640690    8.3072754435
H        3.3761951676    0.5713615724    4.7829766082
H        3.7334903974   -1.4828825476    6.1256872513
H        1.4076539004    0.7590261791    3.2756649439
H       -0.6929357185   -0.3829774434    2.2678896133
H       -4.0073972103   -2.8800061814    3.8894527859
H        2.1297026789   -3.3959257621    5.9744000217
H       -5.6840394542   -3.5857103533    5.5124357463
H       -2.4639962264   -2.0620317194    2.6190944421
H       -0.8676842896   -4.4947192185    6.3984508403
H       -6.9622745585   -5.0885611225    8.5669830665
H       -6.8770871295   -5.1774274550    6.7844186800
H       -6.7375284673   -3.5895506611    7.6204717035
H       -1.2942675757   -6.1838898440    9.5857677967
H       -0.6549795200   -4.7563365997    8.7241326165
H       -0.8207019154   -6.3297531924    7.8698493640
35   
torsion grid (-105,)
C        2.3894618015   -0.2225172603    5.0050539741
C        2.6231620791   -1.4217086249    5.7015707883
C        1.3638114891   -0.1390550390    4.0690299085
C       -0.5427633013   -1.3081041468    2.8897013640
C       -3.6323988702   -3.4044351751    4.7156021785
C        1.8347478213   -2.5564237045    5.4786517925
C       -4.5594491010   -3.7172313853    5.6888406738
C       -1.4737788316   -2.3205856621    2.9307335321
C       -1.8464481993   -4.3646152490    6.1075745367
C        0.5396873794   -1.2585918875    3.8383055965
C       -2.2553219403   -3.6913913657    4.9169101379
C        0.7816411176   -2.4341004498    4.5871716367
C       -4.1530186876   -4.3531972506    6.8824070221
C       -2.7650391990   -4.6819135031    7.0868798581
C       -1.2943643834   -3.3146480585    3.9485313098
C       -6.3785233018   -4.4178631767    7.7749808496
C       -1.1424182012   -5.6699759454    8.5277729455
O        0.0150157156   -3.5345066213    4.2410812951
O       -4.9645780242   -4.6909421236    7.8729221796
O       -2.4980612473   -5.2904762493    8.2563413696
H        3.0233775496    0.6382041791    5.1931615921
H        3.4307922220   -1.4724847552    6.4258383116
H        1.1965881513    0.7781880405    3.5109425242
H       -0.6904467811   -0.4721809993    2.2106892240
H       -3.9670354832   -2.9185125231    3.8060860811
H        2.0238928542   -3.4957396280    5.9881787168
H       -5.6032441802   -3.4733079701    5.5330658045
H       -2.3867544462   -2.2607389581    2.3494667995
H       -0.8004417520   -4.6099942719    6.2304441403
H       -6.8032128532   -4.7884883222    8.7057273886
H       -6.8121734003   -4.9539744982    6.9263738324
H       -6.5537157362   -3.3421314749    7.6859545152
H       -1.1635443048   -6.1444473401    9.5075394608
H       -0.4916738663   -4.7888244450    8.5584640701
H       -0.7807066965   -6.3834831634    7.7793751689
35   
torsion grid (-90,)
C        2.0669524007   -0.2375677746    5.2725533506
C        2.3564419373   -1.4599082820    5.8989779814
C        1.1124954895   -0.1704607963    4.2584691481
C       -0.5826422441   -1.4090057682    2.8372328403
C       -3.5639771194   -3.4136283221    4.6390845614
C        1.6949247451   -2.6410446969    5.5310713091
C       -4.4616527602   -3.6379307935    5.6597973752
C       -1.4423688568   -2.4793033810    2.7506365776
C       -1.7691548825   -4.4174296959    5.9967092069
C        0.4169663740   -1.3336422337    3.8827971019
C       -2.1932361870   -3.7645791405    4.7977478492
C        0.7089014025   -2.5368666959    4.5685616119
C       -4.0353825672   -4.2482331304    6.8629051062
C       -2.6578994938   -4.6440633887    7.0255855158
C       -1.2599361563   -3.4746924988    3.7823069422
C       -6.2236252263   -4.1663243247    7.8459501760
C       -1.0315934117   -5.6651543790    8.4376648406
O        0.0654786894   -3.6546217571    4.0429503622
O       -4.8191223010   -4.5019436569    7.8963018533
O       -2.3757854599   -5.2205872912    8.2068352381
H        2.6021131824    0.6579235656    5.5722901127
H        3.1076285201   -1.4968307064    6.6824449244
H        0.9107837414    0.7694973314    3.7517788200
H       -0.7360782718   -0.5483400989    2.1909687738
H       -3.9056665957   -2.9396361026    3.7257366124
H        1.9347345376   -3.5978293317    5.9837585842
H       -5.4970586820   -3.3432869862    5.5396955059
H       -2.3080236777   -2.4578377837    2.0979405155
H       -0.7343389986   -4.7204820179    6.0802662779
H       -6.6228959567   -4.4802896355    8.8081158021
H       -6.7161247784   -4.7147166904    7.0386185049
H       -6.3522121241   -3.0878786264    7.7205395056
H       -1.0355294423   -6.0968829556    9.4371295171
H       -0.3335559644   -4.8212543878    8.4022234985
H       -0.7436009810   -6.4280087055    7.7063152751
35   
torsion grid (90,)
C        2.4913739820   -2.3693451298    3.5336571490
C        2.6013239569   -2.6897612219    4.8958499803
C        1.4038331351   -1.6334249603    3.0651015745
C       -0.7723735524   -0.4550191527    3.6154522293
C       -3.7401282640   -2.5283608972    5.3611125115
C        1.6246863024   -2.2878388374    5.8192621866
C       -4.4540694021   -3.6758213741    5.6287242693
C       -1.8585526094   -0.3877144103    4.4567938815
C       -2.0045668526   -3.2348500771    6.9613286066
C        0.3975001405   -1.2351344883    3.9631758975
C       -2.4847971083   -2.2994767831    5.9928070488
C        0.5255150929   -1.6150442862    5.3205764364
C       -3.9610093137   -4.6220070762    6.5578509121
C       -2.7089692275   -4.3876421837    7.2346668239
C       -1.7205408380   -1.1601077804    5.6703793636
C       -5.8412413345   -6.0876533483    6.2783498706
C       -1.1277046775   -5.1825428312    8.8312857999
O       -0.4490853616   -1.0689760721    6.1522033635
O       -4.5707762556   -5.7499177677    6.8780609373
O       -2.3495978873   -5.3523731234    8.0992292537
H        3.2678285015   -2.6861091530    2.8445107151
H        3.4581735178   -3.2576891274    5.2461855191
H        1.3344819374   -1.3582643466    2.0160907924
H       -0.8408051248   -0.0213404098    2.6208745730
H       -4.1292211227   -1.8161461681    4.6420968762
H        1.7161587003   -2.4995240360    6.8797782179
H       -5.3954463439   -3.8535556106    5.1232304268
H       -2.8032585415    0.0310185901    4.1281182804
H       -1.0726844560   -3.0208219358    7.4667536402
H       -6.1120241391   -7.0472397807    6.7138106283
H       -5.7359455419   -6.1841560043    5.1944176471
H       -6.5926425674   -5.3352879862    6.5321580197
H       -1.0419056626   -6.0651478014    9.4629372516
H       -1.1704874908   -4.2835744844    9.4556146667
H       -0.2718265590   -5.1316122393    8.1489655667
35   
torsion grid (105,)
C        2.7514271630   -2.0407116512    3.5218793683
C        2.8269404388   -2.4452470280    4.8666699900
C        1.6146751904   -1.3989149303    3.0413005330
C       -0.7008012075   -0.5133312057    3.5380512461
C       -3.7885815869   -2.6191710669    5.3559766403
C        1.7678008397   -2.2197552361    5.7533737711
C       -4.5602229062   -3.7127632828    5.6922558247
C       -1.8171182561   -0.5948190562    4.3385417512
C       -2.0447835375   -3.3681170076    6.9204492331
C        0.5235443894   -1.1769197668    3.9049752627
C       -2.5041913949   -2.4407191073    5.9370992091
C        0.6224167696   -1.6337156267    5.2401627521
C       -4.0939275534   -4.6499646354    6.6401296180
C       -2.8082852752   -4.4647419010    7.2639634025
C       -1.6843162713   -1.3549425690    5.5471971115
C       -6.0611392946   -6.0123797634    6.4738776908
C       -1.2174303408   -5.2937840620    8.8347026654
O       -0.4314020055   -1.2912089526    6.0711574289
O       -4.7580293900   -5.7287885101    7.0260438203
O       -2.4731388422   -5.4161655261    8.1537604678
H        3.5926564921   -2.2215796857    2.8602940339
H        3.7231145711   -2.9409644485    5.2279792459
H        1.5630848680   -1.0625582267    2.0093294475
H       -0.7757527670   -0.0426313787    2.5610867453
H       -4.1673813350   -1.9110703466    4.6276716854
H        1.8258922629   -2.5007115361    6.7999856977
H       -5.5282012371   -3.8495924119    5.2258141491
H       -2.7843841980   -0.2620634882    3.9798674697
H       -1.0812928516   -3.1990437086    7.3814673133
H       -6.3754194817   -6.9380047295    6.9518529425
H       -5.9939272641   -6.1541695691    5.3916595253
H       -6.7614144629   -5.2088747421    6.7180024897
H       -1.1618053491   -6.1541524449    9.4996720774
H       -1.1816507275   -4.3698195799    9.4221005827
H       -0.3853235718   -5.3236476646    8.1222810861
35   
torsion grid (120,)
C        2.9503673402   -1.7002793728    3.5267265098
C        3.0171011215   -2.1788063605    4.8498516058
C        1.7660318744   -1.1724764087    3.0295992024
C       -0.6549548974   -0.6029886739    3.4553174425
C       -3.8153528578   -2.7115977936    5.3396007699
C        1.9031885749   -2.1394767725    5.6914065694
C       -4.6441251807   -3.7420047529    5.7426345377
C       -1.7789489525   -0.8201172063    4.2189839449
C       -2.0761567610   -3.5111379229    6.8752797248
C        0.6178822025   -1.1350108580    3.8495119505
C       -2.5081017182   -2.5908956733    5.8752368956
C        0.7150817001   -1.6565908939    5.1600142227
C       -4.2097029227   -4.6700868369    6.7106231082
C       -2.8963146927   -4.5433602828    7.2859597540
C       -1.6318919392   -1.5647811296    5.4266219514
C       -6.2617444485   -5.9077439289    6.6549679057
C       -1.3063961216   -5.4133634058    8.8363112477
O       -0.3931843934   -1.5279538725    5.9692620761
O       -4.9286628462   -5.6908037413    7.1600528636
O       -2.5894628360   -5.4805095908    8.2018295022
H        3.8347398311   -1.7373584125    2.8985673102
H        3.9510777793   -2.5855632974    5.2260504162
H        1.7143091096   -0.7839225646    2.0162476670
H       -0.7464183628   -0.1089217677    2.4914269474
H       -4.1797159001   -2.0088159181    4.5993175502
H        1.9477446663   -2.4838492726    6.7195463748
H       -5.6335925621   -3.8313265905    5.3111141711
H       -2.7604810888   -0.5662347925    3.8380122365
H       -1.0875482924   -3.3936414682    7.2975374052
H       -6.6224511621   -6.7921009467    7.1765838358
H       -6.2369950579   -6.0939117208    5.5774501356
H       -6.9019487322   -5.0515088592    6.8854649467
H       -1.2817573554   -6.2499328692    9.5328945053
H       -1.1920352165   -4.4722748285    9.3854981941
H       -0.5021593963   -5.5232312312    8.1000380164
35   
torsion grid (135,)
C        3.1014726968   -1.3956384714    3.5611904034
C        3.1625314442   -1.9630383005    4.8502365716
C        1.8904215343   -0.9616290934    3.0423380854
C       -0.5903165043   -0.6861665313    3.3764995450
C       -3.8079114144   -2.8062481970    5.3009857722
C        2.0160790923   -2.1040275827    5.6317386003
C       -4.6896958530   -3.7647904568    5.7692575543
C       -1.7111855670   -1.0316951142    4.0940935563
C       -2.0805349404   -3.6550451147    6.8172288101
C        0.7093793289   -1.1043202413    3.8039559259
C       -2.4833183332   -2.7454112913    5.7970343360
C        0.8041545440   -1.7031660927    5.0803800164
C       -4.2876680829   -4.6799398626    6.7606588032
C       -2.9528301944   -4.6149263094    7.2931367993
C       -1.5589269745   -1.7854150324    5.2895842947
C       -6.4132783381   -5.7845195119    6.8097173089
C       -1.3740628952   -5.5237468562    8.8333287414
O       -0.3324288223   -1.7786761670    5.8515315346
O       -5.0564494640   -5.6353806889    7.2716581419
O       -2.6769999388   -5.5334547762    8.2380680021
H        4.0107995552   -1.2928431841    2.9775947460
H        4.1178713564   -2.2956765816    5.2450645101
H        1.8386111483   -0.5104073376    2.0553538311
H       -0.6942627839   -0.1580591685    2.4321582054
H       -4.1534589101   -2.1102115688    4.5456106565
H        2.0517286021   -2.5230011047    6.6321477788
H       -5.6955885828   -3.8045777514    5.3694748661
H       -2.6986670944   -0.8360826150    3.6962927691
H       -1.0733701056   -3.5909923357    7.2054991158
H       -6.8156861527   -6.6229258023    7.3750483355
H       -6.4311672531   -6.0130064627    5.7401024512
H       -6.9915014445   -4.8804663490    7.0214415873
H       -1.3815978231   -6.3309307122    9.5642155202
H       -1.1833692834   -4.5704133935    9.3386627777
H       -0.6005092723   -5.7155203335    8.0811016798
35   
torsion grid (150,)
C        3.1850552636   -1.1216457361    3.6280929287
C        3.2512015154   -1.7788059107    4.8745397759
C        1.9588699028   -0.7762575174    3.0820647839
C       -0.5465634869   -0.7818879206    3.3065971617
C       -3.7981749982   -2.9045908232    5.2580000671
C        2.0939829685   -2.0963970273    5.5820251901
C       -4.7259093811   -3.7839266108    5.7923909911
C       -1.6554251641   -1.2426942452    3.9745242404
C       -2.0865617608   -3.7964555162    6.7619918905
C        0.7665811998   -1.0941404858    3.7715779854
C       -2.4614481852   -2.9023447835    5.7188987278
C        0.8683262239   -1.7705805124    5.0073309707
C       -4.3546886730   -4.6794337945    6.8112448372
C       -3.0035555026   -4.6776423709    7.3031716185
C       -1.4952260982   -2.0130258033    5.1543437872
C       -6.5415676160   -5.6441225535    6.9619673023
C       -1.4366652472   -5.6248695361    8.8326559667
O       -0.2735966568   -2.0455128072    5.7190116966
O       -5.1674161365   -5.5618829062    7.3853838226
O       -2.7564917118   -5.5719376913    8.2793345534
H        4.1023697609   -0.8822480085    3.0996413891
H        4.2185414469   -2.0413517492    5.2922346946
H        1.9003945351   -0.2615552929    2.1270916233
H       -0.6644619999   -0.2207236089    2.3832317452
H       -4.1245960663   -2.2213043865    4.4829247580
H        2.1301039751   -2.5912157197    6.5471890444
H       -5.7434338228   -3.7744768181    5.4212403832
H       -2.6446559874   -1.0910733905    3.5636487808
H       -1.0661628390   -3.7853843246    7.1195315208
H       -6.9814834425   -6.4303664545    7.5726197694
H       -6.6017141465   -5.9163640987    5.9040671633
H       -7.0573712541   -4.6971384183    7.1462742003
H       -1.4719967480   -6.3992835165    9.5974555168
H       -1.1668324215   -4.6666791262    9.2907466385
H       -0.7028260406   -5.8981672660    8.0659413771
35   
torsion grid (165,)
C        3.2147125294   -0.8775542966    3.7366609203
C        3.2947498682   -1.6395317552    4.9216496236
C        1.9833534877   -0.5999126515    3.1659848652
C       -0.5142050942   -0.8580747172    3.2689480605
C       -3.7762116886   -3.0075663695    5.2155251291
C        2.1477155907   -2.1275935161    5.5412841224
C       -4.7386164235   -3.8067202841    5.8129817421
C       -1.6042146322   -1.4251809640    3.8817614703
C       -2.0831198811   -3.9180041772    6.7264096444
C        0.8007347204   -1.0863434776    3.7694259328
C       -2.4334690673   -3.0511818485    5.6527383576
C        0.9164453078   -1.8543722259    4.9485529613
C       -4.3946587137   -4.6691966233    6.8680195140
C       -3.0341831365   -4.7194302782    7.3297359229
C       -1.4357923218   -2.2330411931    5.0331475636
C       -6.6268651509   -5.4998733703    7.1123793416
C       -1.4832537919   -5.6839312110    8.8649303366
O       -0.2097957555   -2.3204186908    5.5792173705
O       -5.2416444642   -5.4744309004    7.5044680048
O       -2.8127051062   -5.5779654378    8.3437459717
H        4.1244614172   -0.5070103585    3.2750318733
H        4.2658119634   -1.8491962854    5.3599982177
H        1.9117013322   -0.0102858027    2.2563339017
H       -0.6475890998   -0.2521718326    2.3764902445
H       -4.0838585282   -2.3502038905    4.4110191955
H        2.1944578931   -2.7094501755    6.4561674790
H       -5.7618862692   -3.7593959873    5.4610885914
H       -2.5947217515   -1.2940973499    3.4677539642
H       -1.0560453094   -3.9482173754    7.0629561269
H       -7.0967332013   -6.2277064420    7.7712837848
H       -6.7256796868   -5.8217609032    6.0713944685
H       -7.0852171834   -4.5169810634    7.2566452098
H       -1.5416206730   -6.4201591341    9.6652370796
H       -1.1456676985   -4.7239484250    9.2716010017
H       -0.7881391015   -6.0336648530    8.0932123871
35   
torsion grid (180,)
C        3.1758149881   -0.6491620844    3.8429096076
C        3.2874683474   -1.5225419242    4.9457936990
C        1.9431112753   -0.4219007504    3.2535989951
C       -0.5227139780   -0.9044607934    3.2278258212
C       -3.7575735645   -3.1184882260    5.1524034055
C        2.1707595119   -2.1715869864    5.4640808874
C       -4.7339744545   -3.8511931254    5.8100930643
C       -1.5882550233   -1.5707731567    3.7804973096
C       -2.0631141408   -4.0196323113    6.6664783885
C        0.7899951959   -1.0667990635    3.7577767580
C       -2.4084720641   -3.1868833962    5.5646724639
C        0.9361796437   -1.9342383282    4.8620320798
C       -4.3964644409   -4.6743154444    6.8976834580
C       -3.0278243050   -4.7549421966    7.3294751073
C       -1.3969146775   -2.4314029637    4.8886859263
C       -6.6518739600   -5.4016401303    7.2366235148
C       -1.4752436153   -5.7072970731    8.8706784076
O       -0.1560100991   -2.5799656027    5.3827336181
O       -5.2569396277   -5.4147374832    7.5926071948
O       -2.8131232991   -5.5716326312    8.3790032025
H        4.0624805150   -0.1554728731    3.4580164051
H        4.2593444866   -1.6925839032    5.3992189752
H        1.8474538636    0.2486667004    2.4042413452
H       -0.6765520322   -0.2455970598    2.3771735393
H       -4.0604336470   -2.4957322273    4.3191708331
H        2.2421826818   -2.8456205372    6.3116406312
H       -5.7626638263   -3.7837272962    5.4778423683
H       -2.5824197519   -1.4451070790    3.3742170873
H       -1.0302819094   -4.0721473603    6.9820104766
H       -7.1331682694   -6.0759005289    7.9426228883
H       -6.7916080287   -5.7700070915    6.2159150985
H       -7.0661463616   -4.3945359340    7.3424098335
H       -1.5404930016   -6.4038668685    9.7052345316
H       -1.0896834854   -4.7443304261    9.2242929136
H       -0.8153151401   -6.1187839070    8.0985573045
