25   
torsion grid (-165,)
C        2.4635612760   -0.3268752565    0.3822134031
C        1.1920055112    0.1490441903    0.7155631222
C        0.2330575475   -1.9808470992    0.0636749963
C        7.7827922968   -3.0950109289   -1.5003249524
C        6.0178261529   -2.3587553821   -2.6289093533
C        7.1754515097   -3.0993397965   -2.7899640020
C        2.6393205806   -1.6242644838   -0.1195676946
C        0.0860164217   -0.6809817445    0.5536924234
C        1.5028261948   -2.4435919281   -0.2719266143
C        4.9478050325   -1.2640326442   -0.6398305598
N        7.0559623603   -2.4188235804   -0.6122770810
N        5.9924345219   -1.9589753726   -1.3117781355
N        7.7075412490   -3.6561154383   -3.9709921609
O        3.8434339776   -2.1640797857   -0.4555646652
Cl      -1.5159162097   -0.0968641994    0.9697397830
Cl       1.6870037654   -4.0645697169   -0.8959706093
H        3.3182015321    0.3226936916    0.5341645518
H        1.0702339460    1.1547545109    1.1041037052
H       -0.6287836579   -2.6270182009   -0.0621283824
H        8.7184838995   -3.5512843125   -1.1989243102
H        5.2252408108   -2.1003560149   -3.3176735742
H        5.3429935648   -0.9299705577    0.3225602468
H        4.6146778339   -0.4099150814   -1.2405469012
H        6.9915562605   -3.8519045416   -4.6632084224
H        8.2285750459   -4.5078083988   -3.7874233677
25   
torsion grid (-150,)
C        1.8001090283   -2.5687967318   -1.9938108660
C        0.4667681743   -2.2053302882   -2.1850211123
C        0.5078778746   -0.9950614327   -0.0737302542
C        7.1227434076   -3.6573440166   -2.8265794766
C        6.9552807440   -2.8952896004   -0.7487663283
C        7.7426626062   -3.7090023083   -1.5442451587
C        2.5007405255   -2.1598229598   -0.8541473244
C       -0.1665879495   -1.4204451259   -1.2189493288
C        1.8424557012   -1.3671258892    0.0988017319
C        4.8073298324   -1.6647165926   -1.1600363706
N        6.0379867557   -2.8836949885   -2.8226827384
N        5.9563838935   -2.4048752555   -1.5596370755
N        8.9477449071   -4.3645640311   -1.2151208385
O        3.7965710669   -2.5747033033   -0.6689662613
Cl      -1.8439616797   -0.9565609216   -1.4410662019
Cl       2.7017112772   -0.8381808948    1.5296445020
H        2.3219807819   -3.1827819477   -2.7220785831
H       -0.0743936686   -2.5280195939   -3.0683337347
H        0.0080516484   -0.3866052723    0.6718677690
H        7.4385976488   -4.1435820936   -3.7424243890
H        7.0204468803   -2.6276121196    0.2970836251
H        5.0781970285   -0.9691602343   -0.3604082256
H        4.4297942323   -1.1240140950   -2.0303549944
H        9.0580501778   -5.2339239851   -1.7276346689
H        9.0231428122   -4.5579620697   -0.2216070408
25   
torsion grid (-135,)
C        2.0649128529   -2.3574247299   -2.0135448382
C        0.7207964233   -2.1606520933   -2.3288982044
C        0.3487828925   -1.2267580581   -0.1130238749
C        6.8591095537   -3.8544203282   -2.7521072609
C        7.0137289850   -2.7440780726   -0.8361159129
C        7.6504404690   -3.7270328407   -1.5741463300
C        2.5695126292   -1.9864978670   -0.7608437888
C       -0.1261784213   -1.5988396276   -1.3706426122
C        1.7011056596   -1.4161276941    0.1814597227
C        4.8656992177   -1.4797056497   -1.1725071065
N        5.8159994475   -3.0248561814   -2.7403797020
N        5.9310024485   -2.3362956974   -1.5813823859
N        8.8642061568   -4.3896832396   -1.2964389818
O        3.8801024634   -2.2242012811   -0.4316006075
Cl      -1.8229376244   -1.3555764163   -1.7480699094
Cl       2.3155995389   -0.9285613798    1.7441131688
H        2.7427969158   -2.8142549602   -2.7297405725
H        0.3320510728   -2.4522201073   -3.2990340752
H       -0.3147477754   -0.7888827273    0.6245327473
H        7.0236446831   -4.5073026506   -3.6015874226
H        7.2359074961   -2.3094902008    0.1290464994
H        5.2641304038   -0.7010107243   -0.5154274598
H        4.4198492625   -1.0359146590   -2.0638632734
H        8.8753496640   -5.3329650920   -1.6714461681
H        9.0644236027   -4.4294876655   -0.3022374638
25   
torsion grid (-120,)
C        2.2619056020   -2.2632423716   -1.9119587759
C        0.9163668236   -2.2133624461   -2.2765889180
C        0.3588691778   -1.3436383862   -0.0764989892
C        6.6110512496   -3.9167516445   -2.7353206105
C        7.0166988892   -2.7610720630   -0.8839619412
C        7.5025684773   -3.8226856845   -1.6283109095
C        2.6737186820   -1.8411832013   -0.6408514669
C       -0.0249112768   -1.7555606683   -1.3526120527
C        1.7108740100   -1.3822369982    0.2709595833
C        4.9658649727   -1.3175328554   -1.0986546744
N        5.6498462002   -2.9949799284   -2.6762660871
N        5.9192192021   -2.2796085995   -1.5596432914
N        8.6711595140   -4.5835237792   -1.4181957398
O        3.9838139289   -1.9194264528   -0.2419105295
Cl      -1.7233050893   -1.6997782374   -1.7946225565
Cl       2.2026263816   -0.8454537413    1.8607179128
H        3.0077748646   -2.6482813356   -2.6023297275
H        0.6007641153   -2.5428878802   -3.2610705693
H       -0.3762390362   -0.9878434633    0.6369161686
H        6.6473012593   -4.6106593597   -3.5672177523
H        7.3552971174   -2.3155295356    0.0416086982
H        5.4888508756   -0.5659871122   -0.5015366503
H        4.4946878869   -0.8538575464   -1.9658981573
H        8.5681024335   -5.5372102083   -1.7503973014
H        8.9497400664   -4.6037700261   -0.4424676988
25   
torsion grid (-105,)
C        2.8022927383   -2.5062632550   -2.4017845929
C        1.6088616915   -2.6696280271   -3.1077189036
C        0.4233892908   -3.0275473313   -1.0194160505
C        7.2381699631   -2.9760142935   -2.8562990527
C        7.1226323305   -2.7577372405   -0.6504058547
C        7.8993360579   -3.3280425815   -1.6452640828
C        2.8184254919   -2.5815750128   -1.0029943577
C        0.4290159920   -2.9299625610   -2.4112072987
C        1.6184028158   -2.8482764563   -0.3221702004
C        4.9419303832   -1.5001850887   -0.6722565711
N        6.1405703881   -2.2539057631   -2.6281499395
N        6.0883230667   -2.1093723516   -1.2839212521
N        9.1248393144   -4.0136232316   -1.5201539139
O        3.9614858498   -2.4546443086   -0.2556229718
Cl      -1.0756036961   -3.1462363447   -3.2907698866
Cl       1.6119766133   -2.9527968480    1.4234949219
H        3.7329034904   -2.3450512959   -2.9378824846
H        1.6029428485   -2.6112674475   -4.1912364509
H       -0.4951652613   -3.2300848350   -0.4797864745
H        7.5297968546   -3.2130399001   -3.8729225891
H        7.2192161872   -2.7566524616    0.4268494279
H        5.2634883710   -0.9954368950    0.2412225409
H        4.5209673374   -0.7808559200   -1.3759116218
H        9.2459640961   -4.7120721150   -2.2466974934
H        9.2295512360   -4.4590757367   -0.6143025783
25   
torsion grid (-90,)
C        2.8795686052   -2.4078472190   -2.3334731325
C        1.7458703419   -2.7690094255   -3.0661770759
C        0.5534158183   -3.2234142215   -1.0038025989
C        7.1542592039   -2.8540710387   -2.8885942772
C        6.9466478050   -2.8199560680   -0.6784566471
C        7.7073928217   -3.3851411703   -1.6890814246
C        2.8591561445   -2.4346018551   -0.9333794591
C        0.5921629259   -3.1736744812   -2.3980811341
C        1.6851952288   -2.8522704803   -0.2800631204
C        4.9568780632   -1.2739606047   -0.6621473352
N        6.1307030493   -2.0354550378   -2.6400725362
N        6.0201900024   -2.0106816286   -1.2920186130
N        8.8397802450   -4.2169505511   -1.5770604811
O        3.9237589595   -2.1028553387   -0.1357662821
Cl      -0.8342539936   -3.6364958732   -3.3122920503
Cl       1.6341515481   -2.9038133413    1.4674882550
H        3.7879542769   -2.1348815820   -2.8600453752
H        1.7709113467   -2.7469419159   -4.1507532290
H       -0.3439666699   -3.5387813108   -0.4830478087
H        7.4691551374   -3.0330244478   -3.9100308574
H        6.9839514799   -2.9267298263    0.3971538226
H        5.3528639110   -0.7497683669    0.2094722401
H        4.5717315164   -0.5597589079   -1.3922057335
H        8.9137985589   -4.8670146503   -2.3531355032
H        8.8535824631   -4.7390096906   -0.7069097621
25   
torsion grid (-75,)
C        2.9767630276   -2.2557723384   -2.3146600325
C        1.9255430971   -2.8005253515   -3.0576586478
C        0.7732998156   -3.3875249375   -1.0070898432
C        7.1251772520   -2.7365546963   -2.8798339385
C        6.7127189413   -2.8914283123   -0.7032087552
C        7.4796726279   -3.4613740065   -1.7071927741
C        2.9351246065   -2.2620388574   -0.9149632029
C        0.8325903486   -3.3610413157   -2.4015493498
C        1.8231851086   -2.8396527651   -0.2736571581
C        5.0008008846   -1.0395279541   -0.6662169426
N        6.2054791638   -1.8036346358   -2.6249114964
N        5.9693443503   -1.9000984986   -1.2969901235
N        8.4638983452   -4.4642545208   -1.5983094641
O        3.9054306510   -1.7449058039   -0.0965881769
Cl      -0.4882935047   -4.0527106978   -3.3294924687
Cl       1.7487660251   -2.8705226785    1.4737392669
H        3.8361572579   -1.8558757573   -2.8401240788
H        1.9686770234   -2.7933828787   -4.1418268359
H       -0.0763743453   -3.8243941263   -0.4941277565
H        7.5051251827   -2.8606761388   -3.8871119913
H        6.6278600560   -3.1100367424    0.3525428786
H        5.4516476703   -0.5275339885    0.1857438644
H        4.6804518011   -0.3135945319   -1.4171676847
H        8.5232910531   -5.0334279079   -2.4366487419
H        8.3147438599   -5.0699086042   -0.7977874065
25   
torsion grid (-60,)
C        3.2271770715   -2.7358353205   -2.3989540693
C        2.4213488334   -3.4238236502   -3.3099061850
C        1.5232198678   -4.7701970634   -1.5049576394
C        7.2708824072   -2.5391873792   -2.8788317146
C        6.7630902494   -3.2645316041   -0.8418554500
C        7.5988025928   -3.5335459191   -1.9143341549
C        3.1918087832   -3.0539392010   -1.0359194036
C        1.5748522108   -4.4335750137   -2.8585777214
C        2.3328693759   -4.0816630680   -0.6042160502
C        4.9723489026   -1.5375166547   -0.4309398358
N        6.3023492325   -1.7300051130   -2.4447412266
N        6.0089170764   -2.1735775856   -1.2016019002
N        8.6148112714   -4.5047210922   -2.0134307023
O        3.9191276819   -2.4215267795   -0.0618394110
Cl       0.5611977354   -5.3037597229   -3.9985546365
Cl       2.2750289719   -4.5085727803    1.0912884994
H        3.8984380177   -1.9711751347   -2.7705534469
H        2.4603974126   -3.1726064523   -4.3647064676
H        0.8660488955   -5.5570603508   -1.1515767785
H        7.7016042053   -2.3885976252   -3.8617620935
H        6.6360002513   -3.7518942696    0.1151772559
H        5.3595445848   -1.1870866901    0.5274174694
H        4.6148470066   -0.6915085636   -1.0240285852
H        8.7350657347   -4.8356201601   -2.9654067494
H        8.4527932993   -5.3004612298   -1.4048384459
25   
torsion grid (-45,)
C        5.8695357074   -3.0978573468    1.5133558174
C        6.2019535767   -4.3628356857    1.9956196548
C        4.0102759254   -5.1794953641    1.3273082394
C        7.7950653952   -2.1407109389   -1.6668374749
C        5.8556362238   -3.1671880126   -1.9904048207
C        7.2175209293   -3.3489679076   -2.1529032878
C        4.6196219787   -2.8520579045    0.9371526937
C        5.2665915987   -5.3948036237    1.8942553187
C        3.6968123437   -3.9046987085    0.8509150274
C        4.4765501525   -1.3624421270   -0.9211286349
N        6.8691708523   -1.2851725476   -1.2320708407
N        5.6883122420   -1.9064748702   -1.4570281573
N        7.8962857643   -4.4307670889   -2.7504949943
O        4.3249988322   -1.5828023768    0.4965035212
Cl       5.6708166703   -6.9963141609    2.4892212511
Cl       2.1242749322   -3.6317857716    0.1286027467
H        6.5788730812   -2.2776189378    1.5557177234
H        7.1748213394   -4.5483197422    2.4387300125
H        3.2857182791   -5.9833660100    1.2577893277
H        8.8433696522   -1.8667668308   -1.6323694145
H        5.0121094805   -3.8066290523   -2.2124391869
H        4.4830203998   -0.2796542112   -1.0343502841
H        3.6349164715   -1.8070359055   -1.4587858567
H        7.3683676048   -5.2959115486   -2.6967879166
H        8.8125661120   -4.5785360347   -2.3395568902
25   
torsion grid (-30,)
C        5.8106742467   -2.9598720514    1.6191093523
C        6.2341243966   -4.2020406657    2.0903365673
C        4.2469680582   -5.2295352201    1.1335108037
C        7.7509018009   -2.3331266427   -1.5369298320
C        5.7358216010   -3.1270882083   -2.0213220385
C        7.0781460876   -3.4461801676   -2.1191394140
C        4.6158797908   -2.8301265844    0.9053993219
C        5.4467796195   -5.3271569504    1.8387357569
C        3.8427498868   -3.9769762077    0.6697278354
C        4.5013789380   -1.2499756075   -0.9036814707
N        6.8967340384   -1.4064506550   -1.1037378696
N        5.6703620271   -1.8839164826   -1.4268208569
N        7.6741299293   -4.5640497381   -2.7376966035
O        4.2180147035   -1.5861981467    0.4787546043
Cl       5.9699013357   -6.9013265826    2.4146608554
Cl       2.3535717971   -3.8472655600   -0.2446486274
H        6.4084209119   -2.0685349737    1.7778781560
H        7.1648928689   -4.2972784258    2.6397193588
H        3.6384884806   -6.1071071396    0.9449095431
H        8.8183906320   -2.1775385089   -1.4304933952
H        4.8444543299   -3.6587973789   -2.3248662436
H        4.6421355657   -0.1702542333   -0.9108704501
H        3.6471772718   -1.5386846464   -1.5212173381
H        7.0533060934   -5.3665179898   -2.7652815793
H        8.5392194398   -4.8342273014   -2.2804272493
25   
torsion grid (-15,)
C        5.7360304275   -2.8860180387    1.6570008140
C        6.2266953559   -4.0930772492    2.1544037847
C        4.3879274043   -5.2722161214    1.0812753652
C        7.7241920837   -2.4545645691   -1.4560513932
C        5.6850827133   -3.0878507046   -2.0633111212
C        7.0071182347   -3.4896268263   -2.1234354644
C        4.5805076410   -2.8490854411    0.8714949530
C        5.5464788652   -5.2757068062    1.8587869764
C        3.9183482751   -4.0540978686    0.5894131871
C        4.5306619981   -1.1918773170   -0.8917524402
N        6.9132384431   -1.4977290246   -1.0073134601
N        5.6724842680   -1.8755237904   -1.4053896702
N        7.5564175911   -4.6117726527   -2.7755934890
O        4.0901954011   -1.6500466153    0.4185340463
Cl       6.1559428556   -6.8048388615    2.4707969385
Cl       2.4887710304   -4.0338541093   -0.4227523403
H        6.2516459628   -1.9524225917    1.8550077636
H        7.1267128836   -4.1164156058    2.7599124832
H        3.8639362485   -6.1947391488    0.8570443735
H        8.7937286796   -2.3762265611   -1.2983199689
H        4.7755490195   -3.5450756338   -2.4275360780
H        4.7752059576   -0.1368254417   -0.7760632404
H        3.6969923275   -1.3283946293   -1.5850298945
H        6.8853004782   -5.3664273564   -2.8767073174
H        8.3783128171   -4.9651081415   -2.2958846216
25   
torsion grid (0,)
C        5.6673614386   -2.8518260303    1.6556314581
C        6.2094625776   -4.0175808137    2.1959498060
C        4.4667303990   -5.3217562055    1.1081133111
C        7.7163243705   -2.5355640115   -1.4154873073
C        5.6667493215   -3.0490061209   -2.0975905532
C        6.9713267782   -3.5059318943   -2.1467051469
C        4.5343353535   -2.8979655945    0.8375641079
C        5.6017581675   -5.2425233183    1.9154325089
C        3.9475071127   -4.1446238663    0.5682902427
C        4.5681328982   -1.1623849683   -0.8612804330
N        6.9369304220   -1.5664554509   -0.9388536795
N        5.6904755597   -1.8702919342   -1.3821988966
N        7.4871053014   -4.6204675175   -2.8370221932
O        3.9762801975   -1.7505435118    0.3345287227
Cl       6.2746286473   -6.7200158257    2.5855363352
Cl       2.5517899572   -4.2301843029   -0.4853462273
H        6.1273063041   -1.8885834016    1.8482607434
H        7.0920672590   -3.9760062329    2.8255926839
H        3.9999899541   -6.2769678831    0.8947029802
H        8.7839803408   -2.5122482523   -1.2302001445
H        4.7465719467   -3.4507420646   -2.4987266913
H        4.8950358720   -0.1552392411   -0.6028641276
H        3.7734293681   -1.1358771005   -1.6101626953
H        6.7860062814   -5.3377092521   -2.9921824696
H        8.2797231109   -5.0329488615   -2.3553185910
25   
torsion grid (15,)
C        5.5994070119   -2.8368418079    1.6549968167
C        6.1591544732   -3.9639962907    2.2552340041
C        4.4961787886   -5.3613742840    1.1596911912
C        7.7410375364   -2.5960805959   -1.4136818288
C        5.6805543119   -2.9902342181   -2.1420747612
C        6.9682031570   -3.4916923373   -2.2086875901
C        4.4973268742   -2.9495868698    0.8008953837
C        5.5986543226   -5.2170037326    2.0019274842
C        3.9601576416   -4.2231626120    0.5558644881
C        4.6371148870   -1.1392525199   -0.8085667073
N        6.9921977184   -1.6300908178   -0.8841459107
N        5.7402467976   -1.8600893911   -1.3554020427
N        7.4492747739   -4.5808397023   -2.9612141185
O        3.9090484533   -1.8491908549    0.2312088603
Cl       6.2912582190   -6.6464964747    2.7513074971
Cl       2.6087823835   -4.3963013148   -0.5427803387
H        6.0246635653   -1.8549479126    1.8322829246
H        7.0176930980   -3.8704682930    2.9119503625
H        4.0673876305   -6.3382801183    0.9658565407
H        8.8066417235   -2.6240419709   -1.2179038575
H        4.7489676509   -3.3359684724   -2.5685733826
H        5.0317033736   -0.2095192131   -0.3958108790
H        3.8941166501   -0.9358058611   -1.5821658912
H        6.7237235740   -5.2601771280   -3.1664580465
H        8.2215178929   -5.0512542388   -2.4999618995
25   
torsion grid (30,)
C        5.5199574438   -2.8200736492    1.6618130355
C        6.0854995466   -3.8965248459    2.3439970956
C        4.5009126418   -5.3972808186    1.2719552457
C        7.7499936900   -2.6292557002   -1.4549353955
C        5.6793506184   -2.9448152600   -2.1941907059
C        6.9587940367   -3.4620043710   -2.2984857687
C        4.4524116714   -3.0107900061    0.7779606409
C        5.5665592138   -5.1766412155    2.1442903498
C        3.9586318390   -4.3102557984    0.5848983030
C        4.6697790034   -1.1565544639   -0.7516084734
N        7.0185546310   -1.6861021472   -0.8626360431
N        5.7618803612   -1.8669349882   -1.3406020345
N        7.4178905892   -4.5120236765   -3.1175323899
O        3.8485649317   -1.9699671254    0.1174127891
Cl       6.2665837028   -6.5419497567    2.9987505813
Cl       2.6548298408   -4.5839027571   -0.5494818132
H        5.9187514101   -1.8213201181    1.8017919142
H        6.9174073160   -3.7422105069    3.0230812110
H        4.1051893543   -6.3948960048    1.1171338302
H        8.8155567799   -2.6867950533   -1.2656734705
H        4.7390667268   -3.2519300985   -2.6311890784
H        5.1006010667   -0.3178359656   -0.2004455519
H        3.9767431905   -0.7985366859   -1.5150361649
H        6.6805773288   -5.1669862712   -3.3572258746
H        8.1861153491   -5.0202915712   -2.6910443171
25   
torsion grid (45,)
C        5.5603319472   -2.9787692918    1.4967958632
C        6.0453464563   -3.9806328667    2.3387183821
C        4.1889970297   -5.4101338535    1.7052576106
C        7.8748322619   -2.4613814660   -1.6549673197
C        5.8096671613   -2.9605203841   -2.3033335708
C        7.1308833963   -3.3199611032   -2.5138477061
C        4.3951509408   -3.1776306837    0.7468334639
C        5.3540707822   -5.1872454302    2.4395746335
C        3.7218873537   -4.4061909525    0.8575614952
C        4.6927214536   -1.3143456728   -0.7625997079
N        7.0794059372   -1.6483857252   -0.9581531029
N        5.8264818486   -1.9480366922   -1.3727929347
N        7.6515572007   -4.2527079788   -3.4323478764
O        3.8354492761   -2.2290213955   -0.0695662733
Cl       5.9547748139   -6.4529552574    3.4985898406
Cl       2.2786875984   -4.6930147327   -0.0886374754
H        6.1105767244   -2.0493845351    1.4105646922
H        6.9531658960   -3.8198239780    2.9106773092
H        3.6543548867   -6.3505085886    1.7808813386
H        8.9493053825   -2.4105688906   -1.5234819268
H        4.8832966072   -3.3389611755   -2.7136908567
H        5.0876312142   -0.5420129865   -0.0974594049
H        4.0377892733   -0.8665543182   -1.5121762422
H        6.9794299848   -4.9722740806   -3.6781393934
H        8.4985306687   -4.6945329368   -3.0892176836
25   
torsion grid (60,)
C        5.5876741482   -3.1726015140    1.4274924972
C        5.9802494506   -4.0821518313    2.4129000403
C        3.9436158531   -5.3498530855    2.0621206137
C        7.9716127861   -2.3614396059   -1.7854510034
C        5.9310251249   -2.9259161373   -2.4576730504
C        7.2692673429   -3.1674632244   -2.7254132600
C        4.3735812010   -3.3386439846    0.7501092209
C        5.1574281549   -5.1617410702    2.7250091013
C        3.5619134605   -4.4403378024    1.0782371469
C        4.7350636307   -1.4905998253   -0.7634637820
N        7.1365662916   -1.6866783405   -0.9926450514
N        5.8992281981   -2.0298742829   -1.4162908770
N        7.8317611342   -3.9541790583   -3.7502369122
O        3.8856536931   -2.4896402315   -0.2085928084
Cl       5.6468064401   -6.3093566854    3.9610192266
Cl       2.0449742111   -4.6794186456    0.2403133068
H        6.2518943507   -2.3538103219    1.1790058153
H        6.9254587872   -3.9473056958    2.9282849951
H        3.3022102886   -6.1906224858    2.3021708594
H        9.0426050921   -2.2524858561   -1.6612224754
H        5.0239305802   -3.3153783235   -2.8993924027
H        5.0958560129   -0.7872131584   -0.0083065872
H        4.0915565395   -0.9757175473   -1.4789909241
H        7.2021355762   -4.6827709700   -4.0705324629
H        8.7106572037   -4.3768411529   -3.4688129500
25   
torsion grid (75,)
C        5.5386150915   -2.5848090735    1.7866478237
C        5.6912814551   -3.3521934038    2.9449640467
C        3.3987455747   -4.1151980214    2.7470824343
C        8.1644703634   -2.2145115491   -1.4869803639
C        6.1017746783   -2.3960597847   -2.2896135327
C        7.4002891143   -2.8203740976   -2.5238199614
C        4.3169908576   -2.5660040241    1.1023769799
C        4.6231138083   -4.1103276728    3.4176461475
C        3.2534871304   -3.3452413596    1.5953845181
C        5.0443163775   -0.9380592899   -0.5236434030
N        7.4001342122   -1.4845902495   -0.6719991510
N        6.1495350164   -1.5952052640   -1.1741280958
N        7.8912787431   -3.5953776619   -3.5936626866
O        4.0614746378   -1.8402833320   -0.0319416748
Cl       4.8101544601   -5.0816016708    4.8688062248
Cl       1.7188757791   -3.3492632078    0.7558340458
H        6.3902272459   -2.0289825714    1.4119588958
H        6.6429540683   -3.3621501627    3.4660768464
H        2.5660201729   -4.7056563298    3.1129439311
H        9.2315283180   -2.2831556175   -1.3107501380
H        5.1719357047   -2.6007235328   -2.8025565145
H        5.4643797353   -0.3119809722    0.2670009522
H        4.4976880460   -0.3237777657   -1.2413276549
H        7.1812225093   -4.2002840224   -3.9934082170
H        8.6903686874   -4.1589736753   -3.3214617910
25   
torsion grid (90,)
C        5.5195157536   -2.7546036793    1.8488741101
C        5.6062450859   -3.3590248354    3.1057147285
C        3.2707783482   -3.9987711270    2.9613505989
C        8.1970778765   -2.3212676080   -1.5302713252
C        6.1924285773   -2.2788569216   -2.4838559707
C        7.4934188854   -2.6986700455   -2.7088980069
C        4.3098685135   -2.7503498079    1.1429823366
C        4.4830879457   -3.9759677027    3.6525680420
C        3.1908743775   -3.3849062082    1.7126541648
C        5.0387478768   -1.1756390054   -0.5335484621
N        7.3949594419   -1.7259659788   -0.6461192344
N        6.1802425333   -1.6924109735   -1.2405770250
N        8.0421380028   -3.2764144523   -3.8715707662
O        4.1354890543   -2.1870529660   -0.0947768049
Cl       4.5853484863   -4.7449448855    5.2282167887
Cl       1.6694721276   -3.4031542167    0.8500499699
H        6.4079867575   -2.3136632988    1.4094653426
H        6.5480205452   -3.3589051808    3.6447039682
H        2.3965774246   -4.4793855094    3.3864919687
H        9.2483857807   -2.4552696240   -1.3037414897
H        5.2976544214   -2.3501876907   -3.0872101170
H        5.4093013073   -0.5736072968    0.2980972739
H        4.4460298313   -0.5605436264   -1.2129843443
H        7.3475942906   -3.7647799113   -4.4274523207
H        8.8022169906   -3.9144538083   -3.6581808557
25   
torsion grid (105,)
C        5.5474296870   -2.8662185592    1.9294308288
C        5.5634795131   -3.2886952341    3.2600547555
C        3.2019641368   -3.8329438202    3.1150206384
C        8.2222335956   -2.4229198866   -1.6414527915
C        6.2519759242   -2.1801420326   -2.6344393568
C        7.5476454533   -2.6019602097   -2.8826215277
C        4.3614384954   -2.9030979293    1.1847116814
C        4.3910097620   -3.7696896646    3.8422031628
C        3.1927155113   -3.3947977820    1.7905206365
C        5.0594465137   -1.3999010879   -0.5591592823
N        7.4091124524   -1.9371999269   -0.7027382084
N        6.2166641660   -1.7742909587   -1.3208438630
N        8.1189022935   -3.0171217172   -4.1027814981
O        4.2874799420   -2.5256509654   -0.1318466284
Cl       4.4031726035   -4.3121898732    5.5124905252
Cl       1.7000408235   -3.4565667947    0.8814380778
H        6.4646055059   -2.5296203602    1.4551766459
H        6.4854929296   -3.2587350051    3.8314041147
H        2.2913636841   -4.2073125726    3.5695664599
H        9.2625869842   -2.6191072826   -1.4092082414
H        5.3762846201   -2.1332181788   -3.2674960059
H        5.3887455944   -0.7997367620    0.2900421339
H        4.3949274135   -0.8181000744   -1.2014449571
H        7.4332840922   -3.4137730043   -4.7372515915
H        8.8666050754   -3.6893495562   -3.9635177833
25   
torsion grid (120,)
C        5.5645742921   -2.9948698460    2.0545416919
C        5.4732419056   -3.2800492267    3.4169791832
C        3.0966047436   -3.7219753942    3.1588813570
C        8.2667534265   -2.4186047604   -1.7811472840
C        6.2682849948   -2.1412343264   -2.7067772848
C        7.5657321862   -2.5116293468   -3.0176636360
C        4.4295861323   -3.0517730802    1.2347785449
C        4.2381161581   -3.6442246048    3.9565913998
C        3.1983035210   -3.4174963427    1.7998069093
C        5.1189526166   -1.5927046838   -0.5357182773
N        7.4676397746   -2.0301432754   -0.7873211872
N        6.2587048402   -1.8392374525   -1.3646090001
N        8.1165891573   -2.8123194698   -4.2804645814
O        4.4992893993   -2.8175451887   -0.1151248280
Cl       4.1121836326   -4.0180612961    5.6674969320
Cl       1.7678060763   -3.4895985734    0.7970620882
H        6.5216377828   -2.7421036333    1.6058674630
H        6.3546406494   -3.2367787496    4.0483885608
H        2.1395637170   -4.0041827461    3.5836306026
H        9.3167652931   -2.6085823702   -1.5906816410
H        5.3764669304   -2.0629012074   -3.3136925100
H        5.4374718078   -1.0013795063    0.3232717233
H        4.3740508378   -1.0460542961   -1.1198475989
H        7.4231752339   -3.1675583444   -4.9308768081
H        8.8773015264   -3.4810946208   -4.2132731210
25   
torsion grid (135,)
C        5.6088667721   -3.1111878272    2.2413032942
C        5.3820552927   -3.2948356742    3.6049528685
C        3.0147809089   -3.6283318380    3.1553512169
C        8.3320469538   -2.3080638116   -1.9676407483
C        6.2503040797   -2.1813589717   -2.7278920307
C        7.5435075928   -2.4432147237   -3.1466859409
C        4.5519356675   -3.1717765723    1.3242715583
C        4.0835039048   -3.5558904131    4.0487196951
C        3.2551868449   -3.4265894205    1.7941056975
C        5.2436043166   -1.7493588920   -0.4640679762
N        7.5874705740   -1.9954727987   -0.9072617984
N        6.3246440593   -1.8971718666   -1.3834404886
N        8.0142010177   -2.6851348851   -4.4541052253
O        4.7803544075   -3.0399073549   -0.0221263295
Cl       3.7836479907   -3.8010125428    5.7606895368
Cl       1.9192758079   -3.4876174212    0.6675619302
H        6.6119587016   -2.9306715932    1.8639170906
H        6.2032794850   -3.2507614966    4.3127107652
H        2.0090705589   -3.8289869612    3.5078052716
H        9.4058245079   -2.4146876871   -1.8646629318
H        5.3087855160   -2.1695996732   -3.2599914666
H        5.5917771130   -1.1564226142    0.3828225946
H        4.4113153069   -1.2476092849   -0.9665542245
H        7.2999314931   -3.0842824639   -5.0546147178
H        8.8250649115   -3.2958989402   -4.4579811602
25   
torsion grid (150,)
C        4.1047809561   -2.0251039637    2.3353274629
C        3.4716708360   -1.6761806886    3.5285937856
C        1.5118648346   -0.9733929282    2.2681110392
C        7.8606259760   -2.7067562476   -1.6184046412
C        5.9119755889   -2.4354491553   -2.6454802272
C        7.1540447934   -3.0213088870   -2.8155588027
C        3.4613536803   -1.8592666588    1.1043188586
C        2.1775227037   -1.1532225414    3.4813283861
C        2.1630740053   -1.3265139026    1.0846333691
C        4.8415634756   -1.2245819049   -0.7262806003
N        7.1157090217   -1.9934713751   -0.7748674723
N        5.9386807723   -1.8129062791   -1.4176490877
N        7.6663406899   -3.6894185006   -3.9475851513
O        4.0900280281   -2.2582393623   -0.0496300852
Cl       1.3647196341   -0.7121870973    4.9722913876
Cl       1.3409426922   -1.1034678006   -0.4449216814
H        5.1088436520   -2.4392931404    2.3356138728
H        3.9727556545   -1.8102592723    4.4815704327
H        0.5066417051   -0.5675148423    2.2403986300
H        8.8804857777   -2.9640343873   -1.3563695685
H        5.0353013806   -2.4061384703   -3.2781547273
H        5.2380171657   -0.5151290742    0.0029821296
H        4.1860452573   -0.7185975016   -1.4410202881
H        6.9341147432   -4.1013254443   -4.5170893735
H        8.3293589448   -4.4142880554   -3.6915112794
25   
torsion grid (165,)
C        2.3972926740   -0.2569347392    0.2046235534
C        1.2224184397    0.1035180291    0.8718746616
C        0.2509850782   -2.0440316021    0.3081124940
C        7.5451176349   -3.2842267002   -1.3206043938
C        6.2127271568   -2.2533885265   -2.7666799890
C        7.2769694606   -3.1361475559   -2.7126926620
C        2.5206958098   -1.5109434589   -0.4100439489
C        0.1576571963   -0.7914689981    0.9197955706
C        1.4253842733   -2.3966306558   -0.3509308162
C        4.8159721491   -1.1467658218   -0.9976911918
N        6.7102058052   -2.5618531838   -0.5752156363
N        5.9132659797   -1.9240466750   -1.4638421716
N        8.0126268861   -3.6956506021   -3.7776334053
O        3.6225082444   -1.9390829602   -1.0853110115
Cl      -1.3233766788   -0.3500107664    1.7524450571
Cl       1.5427226709   -3.9628650765   -1.1147266437
H        3.2108636711    0.4582712967    0.1659197339
H        1.1415401027    1.0766731352    1.3447822028
H       -0.5783953539   -2.7418086694    0.3446116396
H        8.3174473595   -3.8788810607   -0.8467607436
H        5.6518057807   -1.8503081699   -3.5987501931
H        5.0263010496   -0.8793145968    0.0403229053
H        4.6992754788   -0.2483673645   -1.6146585967
H        7.4705187806   -3.7541582095   -4.6336878397
H        8.3666432068   -4.6193686201   -3.5495866056
25   
torsion grid (180,)
C        2.4303997428   -0.3150534413    0.2884217663
C        1.2036020352    0.1201983275    0.7997624099
C        0.2104179582   -2.0130651906    0.2189835388
C        7.6877552385   -3.1857996980   -1.4103763589
C        6.1241487243   -2.3046485242   -2.7175733438
C        7.2526560562   -3.1038285668   -2.7653263653
C        2.5663048380   -1.5974580206   -0.2618802991
C        0.1027085033   -0.7302480338    0.7620206891
C        1.4345429850   -2.4380907769   -0.2891703150
C        4.8626834998   -1.2372386928   -0.8281840342
N        6.8897356350   -2.5039932182   -0.5906054707
N        5.9507376760   -1.9563200077   -1.3967539540
N        7.9037889895   -3.6423198809   -3.8941106038
O        3.7197871813   -2.1032882026   -0.7780872749
Cl      -1.4419579235   -0.1952232282    1.4015027575
Cl       1.5691357119   -4.0399465027   -0.9723428849
H        3.2771944214    0.3599056741    0.3317034041
H        1.1131156554    1.1145307565    1.2244273832
H       -0.6470212176   -2.6764077018    0.1890234040
H        8.5521229391   -3.7063680735   -1.0148598870
H        5.4429369815   -1.9714854818   -3.4885300804
H        5.1628343763   -0.9326202322    0.1775368577
H        4.6241083724   -0.3621305586   -1.4440056931
H        7.2742520603   -3.7698645442   -4.6799452984
H        8.3526873863   -4.5286900783   -3.6857801615
