27   
torsion grid (-165,)
C       -4.1380999702    0.3601294183    0.9199980343
C       -3.5271029242   -1.9696734471    1.1434370261
C       -2.9328312065    0.7378071361    1.5130585288
C       -2.3207027055   -1.6003355622    1.7339473098
C       -4.4485851312   -0.9955754940    0.7263304836
C       -2.0152979473   -0.2433672605    1.9015400608
C       -0.5441969429    0.5268654738    4.5346760826
C       -0.1327159670    1.7379279713    2.1014995233
C       -5.7317544584   -1.4494487716    0.0939510587
C       -6.7349837334   -0.4027078263   -0.3540879079
C        0.5461457438   -1.1911921525    2.7147932355
O       -5.9619599598   -2.6438706884   -0.0564247848
S       -0.5207957583    0.3214949733    2.8790425126
H       -4.8341369318    1.1346417833    0.6128532092
H       -3.7761438957   -3.0155834889    0.9925361435
H       -2.6935676042    1.7839719132    1.6755168216
H       -1.6329321640   -2.3764535990    2.0510520279
H       -1.1954915639    1.3399137986    4.8411191340
H       -0.6184068976   -0.4080299256    5.0844034672
H        0.7421374990    2.2168695058    2.5285600795
H       -0.2278316336    1.6910710861    1.0205542829
H       -6.2922661888    0.2710487373   -1.0956187794
H       -7.0626263383    0.2112711333    0.4918060072
H       -7.5983074282   -0.9049032120   -0.7916738042
H        1.5255081265   -0.8678210025    3.0682296469
H        0.1796339615   -2.0199907967    3.3245378566
H        0.5889025481   -1.4607836469    1.6585229622
27   
torsion grid (-150,)
C       -4.1060464101    0.3687098098    0.8356476473
C       -3.6237624441   -1.9409005317    1.3721744311
C       -2.8985314531    0.7605577397    1.4180620329
C       -2.4183026685   -1.5573226944    1.9525238244
C       -4.4801888431   -0.9834233098    0.8024732580
C       -2.0470946025   -0.2065694203    1.9579410221
C       -0.4706506241    0.3730794536    4.5738130925
C       -0.2095330772    1.8310387177    2.2520869583
C       -5.7676009439   -1.4510952271    0.1890926655
C       -6.6999488365   -0.4213027801   -0.4217021237
C        0.5791382549   -1.1104967448    2.5254346901
O       -6.0570231161   -2.6420595635    0.1834347822
S       -0.5258611325    0.3340444955    2.9063157346
H       -4.7529618938    1.1308130063    0.4120270021
H       -3.9251048305   -2.9835857464    1.3489877114
H       -2.6204767693    1.8076182868    1.4712507616
H       -1.7822948342   -2.3147275222    2.3997685066
H       -1.1334248874    1.1259463698    4.9902423093
H       -0.4952138820   -0.6160003160    5.0241271242
H        0.6657650353    2.2863180509    2.7040014759
H       -0.2990506945    1.8674013943    1.1700052622
H       -6.2004415917    0.1313534891   -1.2247391671
H       -7.0195575841    0.3094613248    0.3290955720
H       -7.5753578963   -0.9318308072   -0.8242042959
H        1.5753669334   -0.7713682692    2.8107902837
H        0.3071689820   -2.0013221602    3.0953112855
H        0.5241573724   -1.2960841987    1.4515951514
27   
torsion grid (-135,)
C       -4.0541823919    0.3525075572    0.7251561177
C       -3.7096939491   -1.8949146352    1.5550195934
C       -2.8515182437    0.7595988494    1.3096905778
C       -2.5119264734   -1.4952291516    2.1389420865
C       -4.4927217333   -0.9754950815    0.8354386593
C       -2.0744143286   -0.1728320711    1.9981956596
C       -0.4023673484    0.1864075568    4.5833655084
C       -0.2696595360    1.8956087516    2.4256748691
C       -5.7768879404   -1.4555639223    0.2242656248
C       -6.6334849461   -0.4681988191   -0.5466232046
C        0.5783931628   -1.0423773870    2.3350759629
O       -6.1237735983   -2.6244780317    0.3474183012
S       -0.5287464818    0.3292247971    2.9266700544
H       -4.6470121758    1.0860307022    0.1874654721
H       -4.0637120268   -2.9170178198    1.6466310432
H       -2.5366736786    1.7952355454    1.2552671200
H       -1.9332459516   -2.2119959054    2.7153183803
H       -1.0646315166    0.8683380298    5.1085283334
H       -0.3791152118   -0.8464785395    4.9208937892
H        0.6098509858    2.3151740472    2.9034322056
H       -0.3686152935    2.0416152583    1.3540255472
H       -6.0768210220   -0.0402920767   -1.3873659446
H       -6.9460079897    0.3620315722    0.0959048233
H       -7.5164793538   -0.9852617031   -0.9234066552
H        1.5848646537   -0.7267511372    2.6121095410
H        0.3365617016   -1.9980209094    2.8043744122
H        0.4703383937   -1.1023373826    1.2509548284
27   
torsion grid (-120,)
C       -4.0050496479    0.3276201519    0.6580847689
C       -3.8072217801   -1.8054631968    1.7793340613
C       -2.7956150371    0.7457347769    1.2215456409
C       -2.6048015138   -1.3936806004    2.3457877638
C       -4.5209290535   -0.9499613286    0.9226067086
C       -2.0911737519   -0.1267094405    2.0514678500
C       -0.2980626519    0.0133813835    4.5639573204
C       -0.3106677694    1.9494417482    2.6108601801
C       -5.8151553904   -1.4371277957    0.3379674132
C       -6.5964908764   -0.5147658686   -0.5795790701
C        0.5652615139   -0.9686326638    2.1566803025
O       -6.2299802160   -2.5602385642    0.5989174597
S       -0.5088116301    0.3325136229    2.9473736577
H       -4.5431619789    1.0151829384    0.0130504043
H       -4.2200854802   -2.7864118781    1.9928000153
H       -2.4302980734    1.7473073145    1.0302566941
H       -2.0809267749   -2.0478530140    3.0393765664
H       -0.9333537897    0.6154689533    5.2052810626
H       -0.1829412609   -1.0417179211    4.7933381573
H        0.5959392503    2.3347671245    3.0661473927
H       -0.4997568736    2.2267032218    1.5793326615
H       -5.9964589749   -0.2281156800   -1.4499860717
H       -6.8787861588    0.4063028182   -0.0582747355
H       -7.4970138929   -1.0299885495   -0.9151403198
H        1.5843980464   -0.7350704538    2.4679836984
H        0.2826027714   -1.9734414058    2.4772359650
H        0.4487563404   -0.8629470635    1.0769266210
27   
torsion grid (-105,)
C       -3.9554111427    0.2894684594    0.5875381335
C       -3.9235069534   -1.6885494191    1.9823265293
C       -2.7331947221    0.6982081545    1.1288493513
C       -2.7091730560   -1.2803695088    2.5275183095
C       -4.5598576522   -0.9070579475    1.0036347676
C       -2.1090211899   -0.0973638442    2.0909463168
C       -0.2002358305   -0.1565624913    4.5145658881
C       -0.3834720760    1.9761974348    2.8026222006
C       -5.8710948404   -1.3833503045    0.4487014753
C       -6.5703459079   -0.5384265777   -0.6003147045
C        0.5465627884   -0.8859435651    1.9969744720
O       -6.3645808317   -2.4352057846    0.8376889431
S       -0.4974996206    0.3282266789    2.9614114485
H       -4.4309672237    0.9169424592   -0.1599011762
H       -4.4044147835   -2.6061291982    2.3067661886
H       -2.2894761752    1.6284450005    0.7939304381
H       -2.2363034807   -1.8641049801    3.3154438404
H       -0.7893075936    0.3603526570    5.2633912769
H        0.0214617555   -1.2115641469    4.6356070575
H        0.5448547049    2.3629304013    3.2089945104
H       -0.7386597676    2.3883821953    1.8664301107
H       -5.9357733239   -0.4063871584   -1.4833498481
H       -6.7993004026    0.4586769896   -0.2089105426
H       -7.4971257556   -1.0332888849   -0.8921674829
H        1.5792054315   -0.7181297450    2.3071870697
H        0.2353439074   -1.9121886462    2.2043789710
H        0.4096162983   -0.6519086305    0.9399225723
27   
torsion grid (-90,)
C       -3.8823473171    0.2362842764    0.5370841556
C       -4.0384189225   -1.5531194398    2.1618364676
C       -2.6439117896    0.6132078532    1.0622897381
C       -2.8056948575   -1.1772036916    2.6917498540
C       -4.5901724155   -0.8491734274    1.0790736676
C       -2.1110557863   -0.1034915205    2.1358896495
C       -0.0847993833   -0.3145580686    4.4483966065
C       -0.4634636038    1.9581060778    2.9636662885
C       -5.9239838536   -1.2873349944    0.5463357449
C       -6.5346244882   -0.5251071926   -0.6154697524
C        0.5535776462   -0.7904731011    1.8491489716
O       -6.5068481828   -2.2435634110    1.0432229381
S       -0.4764713830    0.3014691667    2.9698446917
H       -4.2892271819    0.7983760611   -0.2978371007
H       -4.5978897983   -2.3855231566    2.5774010459
H       -2.1078739972    1.4485941187    0.6232349623
H       -2.3845115339   -1.6985090634    3.5501334572
H       -0.6206197156    0.1209228719    5.2830204917
H        0.2262775089   -1.3529481477    4.4667734758
H        0.4651283054    2.3819783626    3.3290946122
H       -0.9790921424    2.4398698044    2.1429701941
H       -5.8770226465   -0.5537854117   -1.4910646698
H       -6.6876789209    0.5276243933   -0.3544497963
H       -7.4937506793   -0.9773723324   -0.8695245563
H        1.5963800789   -0.6460798653    2.1365316685
H        0.2515534097   -1.8340938694    1.9647641061
H        0.3771662521   -0.4544002852    0.8260182731
27   
torsion grid (-75,)
C       -3.8135048969    0.1340759048    0.4868434891
C       -4.1262850624   -1.4433268527    2.3003817185
C       -2.5668512049    0.4910101035    1.0051966395
C       -2.8837593390   -1.0874644602    2.8230703066
C       -4.6035326742   -0.8352924212    1.1278272403
C       -2.1138326226   -0.1250620960    2.1737564806
C        0.0265509374   -0.4468577531    4.3664617653
C       -0.5411826913    1.9202055646    3.0968000091
C       -5.9484435409   -1.2504231800    0.6042044480
C       -6.4861093628   -0.5758530169   -0.6446630833
C        0.5635562403   -0.6640997887    1.7060573635
O       -6.5976826523   -2.1173482643    1.1768234143
S       -0.4619493209    0.2703840643    2.9657219567
H       -4.1619923848    0.6174108802   -0.4206761602
H       -4.7482574290   -2.1881800416    2.7871852283
H       -1.9635793736    1.2382927343    0.4970912175
H       -2.5068199716   -1.5431985154    3.7374143417
H       -0.4721126138   -0.0970981602    5.2619478349
H        0.3811187720   -1.4681075230    4.2844016678
H        0.3772448244    2.3774084358    3.4479768920
H       -1.1447096814    2.4247913866    2.3522026722
H       -5.8184720827   -0.7432980164   -1.4969155811
H       -6.5686032427    0.5067434680   -0.5002361335
H       -7.4701837880   -0.9867529457   -0.8721421843
H        1.6103075733   -0.5193276672    1.9778711853
H        0.2916590626   -1.7224880514    1.7199319931
H        0.3484425396   -0.2295338697    0.7287100930
27   
torsion grid (-60,)
C       -3.7580090720    0.0365343523    0.4358502056
C       -4.2199211336   -1.2968117697    2.4065497221
C       -2.5037340641    0.3707411147    0.9519942528
C       -2.9699809707   -0.9637590846    2.9257020358
C       -4.6261046858   -0.8004991889    1.1565796236
C       -2.1243557295   -0.1279603731    2.1996569163
C        0.0947336430   -0.5866031038    4.2914956376
C       -0.6018938698    1.8622930403    3.2591576630
C       -5.9802984796   -1.1910666105    0.6380556337
C       -6.4421370755   -0.6279206307   -0.6936936643
C        0.5720280235   -0.5206662898    1.6078242876
O       -6.6970903959   -1.9492640187    1.2801401952
S       -0.4605795510    0.2357705406    2.9751956417
H       -4.0500540477    0.4321209562   -0.5320547231
H       -4.9012595314   -1.9417574971    2.9527710959
H       -1.8437497924    1.0235382709    0.3870756352
H       -2.6408013812   -1.3475231923    3.8898026832
H       -0.3841084645   -0.3290192964    5.2281308499
H        0.4593724607   -1.5912220140    4.1080890447
H        0.3030363197    2.3282240652    3.6339569743
H       -1.2452106892    2.3978657759    2.5704912192
H       -5.7640228116   -0.9266075370   -1.5005114355
H       -6.4617493778    0.4669861513   -0.6698662116
H       -7.4433172123   -1.0032883418   -0.9074972070
H        1.6156455426   -0.3553165569    1.8787541929
H        0.3481398132   -1.5869054414    1.5205962613
H        0.3243727501   -0.0030894318    0.6808023466
27   
torsion grid (-45,)
C       -3.6966587322   -0.0905666106    0.3719317688
C       -4.2724651339   -1.1429212423    2.4767618328
C       -2.4345399738    0.2335372381    0.8784774250
C       -3.0160167051   -0.8215208912    2.9843065810
C       -4.6256574729   -0.7825032690    1.1647217083
C       -2.1076409846   -0.1255835578    2.1869083811
C        0.1713984401   -0.7155541601    4.1920540531
C       -0.6501871324    1.7909826593    3.4314549318
C       -5.9898861864   -1.1581572385    0.6622192410
C       -6.3948751899   -0.7430159173   -0.7406415944
C        0.6181185225   -0.3421116857    1.5294730926
O       -6.7613713773   -1.7888875356    1.3748076381
S       -0.4415391676    0.2124920510    2.9701872493
H       -3.9450640772    0.1998637131   -0.6441859295
H       -5.0003034921   -1.6777332909    3.0789474698
H       -1.7336498804    0.7806218747    0.2552768857
H       -2.7294830943   -1.1112339945    3.9932328032
H       -0.3238359051   -0.5883421494    5.1472820443
H        0.5448211868   -1.6904923462    3.8960532080
H        0.2345181157    2.2492028208    3.8609258796
H       -1.3068483617    2.3695270768    2.7906030198
H       -5.7235707593   -1.1822773210   -1.4865777445
H       -6.3475228414    0.3451075960   -0.8564777715
H       -7.4136714985   -1.0830048139   -0.9290315497
H        1.6523360181   -0.2113728729    1.8497462910
H        0.4059016172   -1.3863412988    1.2865579823
H        0.3972635612    0.3027568241    0.6794173787
27   
torsion grid (-30,)
C       -3.5871933777   -0.2272707481    0.3208379945
C       -4.2705391352   -0.9782087128    2.5207618384
C       -2.3211373187    0.0960034936    0.8208808937
C       -3.0118027506   -0.6600814603    3.0208931737
C       -4.5704681739   -0.7670095159    1.1629164572
C       -2.0447541470   -0.1154774108    2.1722380278
C        0.2778069600   -0.8192884989    4.0971767174
C       -0.6674573652    1.7109223966    3.6200438259
C       -5.9401054596   -1.1319977176    0.6682237037
C       -6.2820774690   -0.8842024504   -0.7899151261
C        0.7043567492   -0.1278098540    1.4979662995
O       -6.7655476280   -1.6206707787    1.4302711143
S       -0.3873692968    0.2078101821    2.9807389423
H       -3.7952605124   -0.0523786800   -0.7301898259
H       -5.0404681165   -1.3951323346    3.1624480458
H       -1.5811066488    0.5245903558    0.1534734670
H       -2.7704295939   -0.8318634587    4.0671743592
H       -0.2425639695   -0.8367471505    5.0479663300
H        0.6739665147   -1.7441749612    3.6887051881
H        0.1935676579    2.1507386690    4.1123594466
H       -1.3395609486    2.3325092311    3.0376389177
H       -5.6133465277   -1.4480544426   -1.4493083809
H       -6.1751161229    0.1762349717   -1.0424769782
H       -7.3114425207   -1.1963607427   -0.9687723454
H        1.7273108560   -0.0492960799    1.8670070091
H        0.5059434791   -1.1210955293    1.0879846731
H        0.5127455706    0.6471580480    0.7560934843
27   
torsion grid (-15,)
C       -3.5761407603   -0.3468863035    0.3011478344
C       -4.3441167548   -0.7853927300    2.5548868045
C       -2.3002056665   -0.0446676155    0.7902184981
C       -3.0776573305   -0.4881934890    3.0461050440
C       -4.6075193895   -0.7194436338    1.1744133772
C       -2.0597420014   -0.1090342496    2.1636148893
C        0.3190971655   -0.9491786384    3.9740730798
C       -0.7024889600    1.5871778830    3.7796116257
C       -5.9891633886   -1.0533413091    0.6919239370
C       -6.2861108788   -0.9635987915   -0.7941369813
C        0.6932637767    0.0336121722    1.4639585514
O       -6.8594073401   -1.3916279644    1.4851726096
S       -0.3963669974    0.1700143665    2.9759292771
H       -3.7536430637   -0.2846878460   -0.7680324366
H       -5.1501106394   -1.0739548623    3.2223265163
H       -1.5248067550    0.2491735728    0.0919638554
H       -2.8703408443   -0.5386931877    4.1117139721
H       -0.2151793187   -1.1006583403    4.9059325366
H        0.7170399945   -1.8183348503    3.4572902469
H        0.1549377056    1.9800846383    4.3159207537
H       -1.3765562407    2.2631066874    3.2632294329
H       -5.6446031840   -1.6457658808   -1.3625205930
H       -6.1031813075    0.0489555173   -1.1696941325
H       -7.3306252475   -1.2280263895   -0.9616815931
H        1.7117978568    0.1278424566    1.8410298851
H        0.5492221844   -0.9249572661    0.9596190508
H        0.4593779589    0.8682461541    0.8028265896
27   
torsion grid (0,)
C       -4.2568259047   -0.8957555108    1.6345516579
C       -3.1792236567    0.0904539699   -0.2944771482
C       -3.0724753626   -0.7638434116    2.3674584807
C       -1.9996031916    0.2267439786    0.4288764332
C       -4.3232865459   -0.4725280073    0.2999068344
C       -1.9430891927   -0.2121880492    1.7585056515
C        0.1806807323    1.7184885882    2.9529109998
C        0.7374003311   -0.6459699022    1.6795198249
C       -5.5728599572   -0.5948850711   -0.5224102515
C       -6.8049586405   -1.2172475207    0.1095179917
C       -0.7940871592   -0.3963131960    4.3626879221
O       -5.5953742038   -0.1990571253   -1.6817131322
S       -0.3381040573    0.1666479845    2.6453070659
H       -5.1232620028   -1.3363959238    2.1179848645
H       -3.2407998546    0.4159484328   -1.3282749375
H       -3.0534190827   -1.1045203973    3.3959946346
H       -1.1138147547    0.6586381136   -0.0279234167
H        0.4197642080    2.2708945778    2.0497837277
H       -0.3882198592    2.2276068871    3.7265689764
H        1.7628351996   -0.5820862164    2.0279283596
H        0.3623536083   -1.5808872043    1.2750720004
H       -7.1278783864   -0.6426309687    0.9844334932
H       -6.5990087439   -2.2393031534    0.4453986792
H       -7.6088203326   -1.2340571364   -0.6270439640
H        0.1128669426   -0.2484497589    4.9491822853
H       -1.6182513382    0.1927954031    4.7720817014
H       -1.0449342814   -1.4565519702    4.3166178335
27   
torsion grid (15,)
C       -4.2886656508   -0.7651680321    1.6587066978
C       -3.1428043475   -0.0629404274   -0.3518738093
C       -3.1045005218   -0.6239112984    2.3878733649
C       -1.9606766514    0.0829868561    0.3667175529
C       -4.3221080153   -0.4893636374    0.2841644368
C       -1.9379468867   -0.2135976609    1.7366806159
C        0.0642604759    1.7548164556    3.0810749738
C        0.7778845891   -0.4600637091    1.6235270445
C       -5.5714297129   -0.6278029523   -0.5358292277
C       -6.8443211646   -1.0985228404    0.1445577835
C       -0.7340020450   -0.5480014466    4.3036257075
O       -5.5615971664   -0.3647598988   -1.7324747260
S       -0.3520970586    0.2004412836    2.6432349190
H       -5.1832818007   -1.0965042093    2.1767737962
H       -3.1778169819    0.1513122279   -1.4155902938
H       -3.1145646416   -0.8438153335    3.4491262755
H       -1.0486947046    0.4151121900   -0.1200099671
H        0.2492171664    2.3932876045    2.2225944306
H       -0.5463295271    2.1578788835    3.8851572640
H        1.7938815608   -0.3400137044    1.9842040818
H        0.4798878463   -1.4018065134    1.1728457691
H       -7.1372780977   -0.4097347758    0.9443779851
H       -6.7045961978   -2.0864692500    0.5965257745
H       -7.6423542448   -1.1499381216   -0.5967250838
H        0.2082013393   -0.4870960972    4.8486469392
H       -1.5141240166    0.0059273245    4.8310850134
H       -1.0174920508   -1.5897853667    4.1482037042
27   
torsion grid (30,)
C       -4.2872979870   -0.6902790214    1.6712070648
C       -3.0773529742   -0.3126061191   -0.3883750245
C       -3.1105667871   -0.5044775471    2.3996008633
C       -1.9005522616   -0.1220084842    0.3308381791
C       -4.2843683455   -0.6015278855    0.2706280626
C       -1.9137777654   -0.2405754168    1.7269091735
C       -0.0841474740    1.7804525038    3.2278366164
C        0.8298593535   -0.2584391641    1.6236314512
C       -5.5242493100   -0.7966920076   -0.5522593123
C       -6.8313726374   -1.1041288115    0.1560129355
C       -0.6787875837   -0.6810443340    4.2539565629
O       -5.4796956951   -0.7095622125   -1.7736105017
S       -0.3646693778    0.2346902147    2.6661728620
H       -5.2053981695   -0.9066431255    2.2085072147
H       -3.0850755959   -0.2379922911   -1.4714897697
H       -3.1468326772   -0.5699344185    3.4816551003
H       -0.9708985266    0.1209968561   -0.1736293031
H        0.0513734814    2.4947814282    2.4213075802
H       -0.7407060271    2.0672113959    4.0453800106
H        1.8232782545   -0.0662364659    2.0144893381
H        0.6340552286   -1.2091940733    1.1368865213
H       -7.1000887034   -0.2985782821    0.8479364809
H       -6.7516375488   -2.0267942640    0.7410624015
H       -7.6188846799   -1.2166597371   -0.5897489882
H        0.2842835758   -0.6676899597    4.7650057660
H       -1.4378466300   -0.1936964067    4.8698321043
H       -0.9659445812   -1.7027696596    4.0009430210
27   
torsion grid (45,)
C       -4.2906538542   -0.5490670984    1.6745178620
C       -3.0318496291   -0.5211187945   -0.3914341292
C       -3.1148405810   -0.3286558893    2.3924061223
C       -1.8545405042   -0.2969523217    0.3197320882
C       -4.2610819076   -0.6550758884    0.2745467416
C       -1.8952158905   -0.2288681912    1.7170432888
C       -0.2109865736    1.7662098632    3.3994926653
C        0.8625211234   -0.0393501360    1.6179302599
C       -5.4977828028   -0.8954249020   -0.5414350295
C       -6.8308335011   -1.0214119204    0.1737671908
C       -0.6219227563   -0.8320298849    4.1679074112
O       -5.4299647903   -0.9886251217   -1.7612347137
S       -0.3724634649    0.2659881945    2.6874984390
H       -5.2277104556   -0.6342603589    2.2158016368
H       -3.0213451810   -0.5902210407   -1.4749060849
H       -3.1646294784   -0.2287517934    3.4724748547
H       -0.9124025686   -0.1560744841   -0.1984109788
H       -0.1347693545    2.5644450944    2.6670515554
H       -0.8914891941    1.9175910428    4.2335177599
H        1.8292356045    0.2071681366    2.0441156682
H        0.7675086729   -0.9787857383    1.0816464901
H       -7.0595087225   -0.1106228819    0.7377345594
H       -6.8154777892   -1.8535566209    0.8859981604
H       -7.6132482864   -1.1939425405   -0.5658537637
H        0.3413844216   -0.8236503850    4.6789356642
H       -1.4048814510   -0.4622669490    4.8332348116
H       -0.8586223839   -1.8312279620    3.7987760377
27   
torsion grid (60,)
C       -4.3113250666   -0.3766201518    1.6502036509
C       -3.0354152516   -0.7488819049   -0.3720264174
C       -3.1292607129   -0.1157683313    2.3433758428
C       -1.8513398129   -0.4873808210    0.3163142543
C       -4.2756159714   -0.7037899634    0.2848585004
C       -1.9018114811   -0.1939774421    1.6825142271
C       -0.3436451566    1.7097376746    3.5582673978
C        0.8526889156    0.2110127837    1.5836526156
C       -5.5174485203   -0.9952088112   -0.5067800395
C       -6.8627362881   -0.9206709307    0.1922685067
C       -0.5818253585   -0.9811984053    4.0226017892
O       -5.4435114041   -1.2881766190   -1.6941157019
S       -0.3935813821    0.2968451315    2.6809084205
H       -5.2566570682   -0.3158529229    2.1801940061
H       -3.0207002145   -0.9862672933   -1.4313436401
H       -3.1731255719    0.1721714886    3.3908846507
H       -0.9051901636   -0.4877101914   -0.2114378030
H       -0.3325025208    2.5960259617    2.9317213684
H       -0.9977783370    1.7056616290    4.4255272555
H        1.7989635671    0.4735649724    2.0452130812
H        0.8376428993   -0.6686423358    0.9485067316
H       -7.0366584484    0.0813641554    0.5991255215
H       -6.9087205759   -1.6269711838    1.0283296530
H       -7.6475803513   -1.1600853433   -0.5258313081
H        0.3455154488   -0.9343134632    4.5950653097
H       -1.4410304724   -0.7771225475    4.6646924044
H       -0.6902141337   -1.9480356608    3.5284618830
27   
torsion grid (75,)
C       -4.2758218425   -0.1961038402    1.5917175091
C       -2.9762472597   -1.0043575708   -0.2833961403
C       -3.0955379585    0.1170490248    2.2680987388
C       -1.7954420991   -0.6943145215    0.3895537244
C       -4.2272444911   -0.7626133603    0.3084648682
C       -1.8625050023   -0.1326958371    1.6687724051
C       -0.4328273231    1.6012963416    3.7835512759
C        0.8484315844    0.5202724232    1.6145591524
C       -5.4646942197   -1.1198256945   -0.4631420652
C       -6.8198986573   -0.8378611691    0.1593609074
C       -0.5190131613   -1.1205398933    3.8831876770
O       -5.3787392456   -1.6295045721   -1.5739589728
S       -0.3760747448    0.3362432057    2.7182817886
H       -5.2282671607    0.0089768722    2.0704344291
H       -2.9511684034   -1.4391925023   -1.2778830797
H       -3.1326542259    0.5880782646    3.2487900072
H       -0.8430849631   -0.8869081070   -0.0904921924
H       -0.4598248702    2.5780636657    3.3141361166
H       -1.0074742764    1.4200048753    4.6855870989
H        1.7979577864    0.7398071243    2.0904974316
H        0.8450314779   -0.1700302207    0.7804316672
H       -6.9365574562    0.2298031256    0.3744484827
H       -6.9354208683   -1.3776423822    1.1055467206
H       -7.5998627224   -1.1543176504   -0.5338024790
H        0.3577539471   -1.0797983969    4.5314540231
H       -1.4412324170   -1.0627387132    4.4652879060
H       -0.5120807600   -2.0216743793    3.2676943974
27   
torsion grid (90,)
C       -4.2582663039   -0.0560250444    1.5460043188
C       -2.9475158265   -1.2186947939   -0.1272355432
C       -3.0844304389    0.2899555247    2.2202775605
C       -1.7749566386   -0.8753822940    0.5419702922
C       -4.2001355522   -0.8124526353    0.3657250969
C       -1.8529786430   -0.1085570694    1.7102427902
C       -0.4736899058    1.4967948970    3.9487930779
C        0.7653754484    0.7618354487    1.6159057761
C       -5.4304622380   -1.2139529745   -0.3954700156
C       -6.7860327552   -0.7622818202    0.1162635829
C       -0.3816028845   -1.2134036092    3.7721094645
O       -5.3383430903   -1.8936732331   -1.4107107243
S       -0.3678391069    0.3637788783    2.7561636378
H       -5.2129219529    0.2691220243    1.9477954303
H       -2.9175703549   -1.8087024281   -1.0381688248
H       -3.1175358181    0.8903061179    3.1282790469
H       -0.8174169526   -1.2092885896    0.1544066340
H       -0.5423483523    2.5218107417    3.6058658243
H       -0.9456238694    1.1810975786    4.8721228384
H        1.7441353046    0.9712383747    2.0327136985
H        0.6914269708    0.2477619978    0.6661333109
H       -6.8414448906    0.3305556143    0.1646511608
H       -6.9697729625   -1.1449884572    1.1260873797
H       -7.5594314667   -1.1342965640   -0.5563669869
H        0.4891233116   -1.1732742174    4.4285664737
H       -1.3085906777   -1.2783584185    4.3464966129
H       -0.3088173532   -2.0469825969    3.0717267991
27   
torsion grid (105,)
C       -4.2968062431    0.0447195649    1.5164146977
C       -3.0197957977   -1.3772050013    0.0258367175
C       -3.1209980288    0.3963011043    2.1856562050
C       -1.8457272853   -1.0272545925    0.6879294269
C       -4.2567483749   -0.8446154970    0.4319376334
C       -1.9071319981   -0.1319805377    1.7620857312
C       -0.5142496510    1.4076908899    4.0354840316
C        0.6083314217    0.9313699838    1.5746213545
C       -5.4910515787   -1.2584519889   -0.3162938810
C       -6.8271253130   -0.6676943148    0.0950861438
C       -0.2244560122   -1.2708792553    3.6457494238
O       -5.4176548478   -2.0581637939   -1.2417384294
S       -0.4044666367    0.3710299132    2.7594995709
H       -5.2394148660    0.4691888938    1.8477707507
H       -3.0048184475   -2.0671885408   -0.8123198013
H       -3.1376514897    1.0863748261    3.0277779650
H       -0.8964732497   -1.4478680611    0.3669636520
H       -0.6611361582    2.4481715100    3.7737833049
H       -0.9095944156    0.9971922574    4.9576316737
H        1.6015852671    1.1858479495    1.9275920900
H        0.4807186492    0.4837839664    0.5963261159
H       -6.8128625531    0.4246313101    0.0156332283
H       -7.0611176647   -0.9177707274    1.1355856502
H       -7.6054206600   -1.0677687966   -0.5554223685
H        0.6727143174   -1.2001648548    4.2626269622
H       -1.1115004141   -1.4619733220    4.2547515247
H       -0.1150722727   -2.0418171711    2.8817345323
27   
torsion grid (120,)
C       -4.3147088108    0.1254717585    1.4551534607
C       -3.0880175090   -1.5119679316    0.1545630958
C       -3.1401429354    0.4680111517    2.1303649495
C       -1.9144751469   -1.1708985451    0.8230859910
C       -4.2993641746   -0.8680928144    0.4638712873
C       -1.9526350998   -0.1794467704    1.8096901373
C       -0.5435724080    1.3156549024    4.1055833006
C        0.4455040225    1.0761086347    1.5535203603
C       -5.5344388924   -1.2748056920   -0.2871455567
C       -6.8406907602   -0.5642742967    0.0162896568
C       -0.0590835669   -1.3029899666    3.5204509655
O       -5.4854252767   -2.1634475688   -1.1294100093
S       -0.4381466918    0.3664703424    2.7623364635
H       -5.2370957733    0.6392621313    1.7073569328
H       -3.0913506428   -2.2767689423   -0.6160701304
H       -3.1390890948    1.2324916874    2.9053052601
H       -0.9821139348   -1.6673489925    0.5673455672
H       -0.7766747789    2.3560589876    3.9164866292
H       -0.8639516588    0.8238747032    5.0171784718
H        1.4359688288    1.3968629981    1.8576971415
H        0.2857244830    0.6669228433    0.5625511899
H       -6.7516437772    0.5122457098   -0.1649602109
H       -7.1231486852   -0.6977211580    1.0662109465
H       -7.6229476231   -0.9754310775   -0.6224466152
H        0.8574936436   -1.1805867744    4.0991288098
H       -0.8905550958   -1.6202512100    4.1549401883
H        0.0885966637   -2.0112775764    2.7048407986
27   
torsion grid (135,)
C       -4.2971445408    0.2074610415    1.3704571717
C       -3.1485167361   -1.6348336512    0.2932620991
C       -3.1240642986    0.5397296818    2.0509517276
C       -1.9744491815   -1.3042556156    0.9683116332
C       -4.3206406863   -0.8847717128    0.4880385776
C       -1.9747552893   -0.2186855358    1.8502327953
C       -0.5540597319    1.2046994590    4.1979488015
C        0.3005845887    1.2263038489    1.5888660007
C       -5.5560213902   -1.2841475484   -0.2665349351
C       -6.8205759883   -0.4657877184   -0.0817000823
C        0.1015227590   -1.3171501667    3.3937513889
O       -5.5399408960   -2.2522620207   -1.0175443071
S       -0.4587593931    0.3593335252    2.7815845701
H       -5.1878365612    0.8066834342    1.5312988016
H       -3.1794444241   -2.4719972800   -0.3973569716
H       -3.0976514024    1.3790472789    2.7428048554
H       -1.0725842828   -1.8824972062    0.7907429180
H       -0.8962946048    2.2270991892    4.0915249778
H       -0.8265755707    0.6235911303    5.0728802365
H        1.2750735456    1.6089665642    1.8739436281
H        0.1367598175    0.8544406986    0.5831145083
H       -6.6550087371    0.5789282456   -0.3661247474
H       -7.1412373699   -0.4733989748    0.9656818976
H       -7.6096282327   -0.8893814919   -0.7037376595
H        0.9996048186   -1.1366310504    3.9855056094
H       -0.6841280031   -1.7814735247    3.9951693855
H        0.3345469017   -1.9323843664    2.5251474104
27   
torsion grid (150,)
C       -4.2519209082    0.2657669243    1.2652129739
C       -3.2220519210   -1.7851129992    0.4925097811
C       -3.0716719393    0.6103724952    1.9239602674
C       -2.0379593264   -1.4431651256    1.1465090797
C       -4.3397111640   -0.9374160186    0.5445369869
C       -1.9711498886   -0.2432713101    1.8615964632
C       -0.5612215634    1.0738912923    4.2885408126
C        0.1800403538    1.3859886181    1.6668318805
C       -5.5866751549   -1.3546368898   -0.1806413192
C       -6.7949292295   -0.4372595739   -0.1428430430
C        0.2575660058   -1.3070408816    3.2465892597
O       -5.6245098967   -2.4161563099   -0.7917019459
S       -0.4650042821    0.3577502693    2.7974390951
H       -5.0998894784    0.9414001938    1.3167323866
H       -3.3000740365   -2.7089541989   -0.0724350572
H       -3.0006717196    1.5376109491    2.4872685617
H       -1.1833169267   -2.1076571404    1.0781383098
H       -1.0157603131    2.0580195878    4.2774948733
H       -0.7782705234    0.3953376631    5.1080959321
H        1.1253875799    1.8278459958    1.9646328754
H        0.0269511118    1.0768321787    0.6379043790
H       -6.5535881357    0.5441628957   -0.5651810631
H       -7.1315374511   -0.2768193778    0.8871136977
H       -7.6013986751   -0.8908514827   -0.7197762164
H        1.1226527762   -1.0883143876    3.8730947277
H       -0.4748409403   -1.9162729577    3.7818356940
H        0.5753115840   -1.7961958274    2.3262275272
27   
torsion grid (165,)
C       -4.2123761143    0.3218516705    1.1378860047
C       -3.3240110025   -1.8867891720    0.7007202434
C       -3.0211139147    0.6769842959    1.7686539634
C       -2.1277312292   -1.5359284566    1.3278454414
C       -4.3769844700   -0.9653954011    0.5977150791
C       -1.9776119573   -0.2481107785    1.8533264024
C       -0.5916543596    0.9014545430    4.3838510788
C        0.0577233910    1.5419811908    1.7983913519
C       -5.6397325629   -1.3972069633   -0.0899289256
C       -6.7809208822   -0.4040753949   -0.2090361057
C        0.3766582632   -1.2792585119    3.0753372165
O       -5.7437389834   -2.5300623660   -0.5457242489
S       -0.4894756483    0.3527230170    2.8178837190
H       -5.0104454908    1.0546663900    1.0715670190
H       -3.4603551619   -2.8770029737    0.2768456567
H       -2.8900285543    1.6714618954    2.1860586760
H       -1.3291484450   -2.2668540505    1.3837221521
H       -1.1486857602    1.8276425801    4.4785349791
H       -0.7600341929    0.1196124544    5.1195611544
H        0.9678150745    2.0223901655    2.1427030019
H       -0.0682447781    1.3202168491    0.7432016003
H       -6.4660883716    0.4884757680   -0.7604551058
H       -7.1178729525   -0.0758412598    0.7802092276
H       -7.6101292524   -0.8795681863   -0.7337334823
H        1.2620815625   -1.0361703447    3.6629695011
H       -0.2627203612   -1.9876082947    3.6076042243
H        0.6683735720   -1.6648624364    2.0982160263
27   
torsion grid (180,)
C       -4.1762739887    0.3466677904    1.0173694669
C       -3.4316961889   -1.9527189003    0.9111330671
C       -2.9761369051    0.7087710979    1.6274708382
C       -2.2276048022   -1.5973666399    1.5182741788
C       -4.4176423299   -0.9884369887    0.6516665373
C       -1.9949141682   -0.2601267896    1.8619491386
C       -0.5942711673    0.6994946901    4.4683983197
C       -0.0476075019    1.6421896324    1.9501101784
C       -5.6925006644   -1.4284674667   -0.0070878736
C       -6.7630299087   -0.3904236600   -0.2885551207
C        0.4727508756   -1.2528222101    2.8961582415
O       -5.8624498363   -2.6036235706   -0.3109463495
S       -0.5128649212    0.3244337801    2.8465757286
H       -4.9218418684    1.1135519971    0.8314282581
H       -3.6268188817   -2.9813932647    0.6238263601
H       -2.7847124467    1.7393023186    1.9112440702
H       -1.4865689813   -2.3667458854    1.7015755765
H       -1.2149540773    1.5678843254    4.6663525286
H       -0.7177954743   -0.1674755172    5.1123721391
H        0.8381227678    2.1305545325    2.3428119145
H       -0.1511792298    1.5100960255    0.8772524962
H       -6.3794326770    0.3985203253   -0.9445056385
H       -7.0963832300    0.0881025498    0.6386737127
H       -7.6116389262   -0.8788595492   -0.7684368815
H        1.4131701018   -0.9708270506    3.3699550041
H       -0.0333495628   -2.0256231790    3.4793612494
H        0.6474482435   -1.5766466692    1.8694958724
