23   
torsion grid (-165,)
C       -0.4236751274    0.0459570429    0.9260550639
C        1.5956031528    0.6250584139    2.3151651744
C        1.2567913161   -1.7517721066    1.5443846771
C       -1.0705924356   -1.6675727321    3.3238393338
C        0.5663504165   -0.4559252121    1.9848190512
N       -3.1529205462   -2.6360908529    4.8771619129
O       -2.8321885981   -0.1504683540    4.6578460716
O       -1.1716121521   -1.5754712464    6.0049102067
O       -0.1204594835   -0.6557926879    3.2577548469
S       -2.0474082150   -1.3661551152    4.8559283811
H       -1.1429983146   -0.7245495019    0.6300744366
H       -0.9762097872    0.9098553834    1.3059689349
H        0.1158773903    0.3469840542    0.0228209936
H        2.2723208567    0.2766831027    3.1002997912
H        1.0924970519    1.5278523228    2.6722177181
H        2.1839492701    0.8772268655    1.4280193934
H        1.9032472682   -2.1311863260    2.3417190927
H        0.5343380375   -2.5311700815    1.2792551465
H        1.8745110878   -1.5659274777    0.6604732495
H       -0.6363716732   -2.6713652296    3.4324656192
H       -1.7980303021   -1.6548238133    2.5024188097
H       -3.8445373344   -2.6034094518    4.1328626914
H       -2.7369361535   -3.5511277095    5.0291223016
23   
torsion grid (-150,)
C       -0.4857267448    0.0688009188    1.0493890914
C        1.6251507074    0.6012975878    2.3124864678
C        1.2496453143   -1.7408911636    1.4558201421
C       -0.9518185893   -1.7596718232    3.3993629728
C        0.5834662288   -0.4745286635    2.0055742113
N       -3.2002542870   -2.5829304048    4.8113751189
O       -2.8661334404   -0.1339630155    4.3357841793
O       -1.3683627678   -1.3599776684    6.0258405132
O       -0.0036101381   -0.7477801983    3.3154473055
S       -2.1041969411   -1.3044879351    4.7660859878
H       -1.2190279873   -0.6926834771    0.7649087858
H       -1.0176997928    0.9032505794    1.5140317836
H       -0.0152220594    0.4216525755    0.1265198616
H        2.3607982218    0.2245263922    3.0285321339
H        1.1420390909    1.4805619880    2.7472344732
H        2.1451643017    0.9014634330    1.3979881895
H        1.9690982171   -2.1383931869    2.1782413907
H        0.5156584420   -2.5219602495    1.2294351943
H        1.7832265358   -1.5148777728    0.5274415188
H       -0.5199168890   -2.7322853569    3.6746331695
H       -1.5819641416   -1.8630622386    2.5091714823
H       -3.7988246515   -2.6514902369    3.9925391876
H       -2.7999429048   -3.4657607966    5.1177397372
23   
torsion grid (-135,)
C       -0.5512149672    0.0640478020    1.1858604062
C        1.6403813166    0.5835223493    2.3089283359
C        1.2456121737   -1.7242796021    1.3739415981
C       -0.8405526420   -1.8435050271    3.4774939330
C        0.5983948566   -0.4995339054    2.0300752294
N       -3.2470344844   -2.5099490443    4.7249103236
O       -2.8215524102   -0.1255148396    4.0289074081
O       -1.5371299314   -1.1716616987    5.9934702675
O        0.1201078834   -0.8475890795    3.3677319015
S       -2.1303039421   -1.2488135695    4.6613141292
H       -1.2875334031   -0.7003820490    0.9178493544
H       -1.0678003688    0.8567056388    1.7326851011
H       -0.1586309219    0.4747171045    0.2504570303
H        2.4277232574    0.1946152807    2.9607430293
H        1.1731340462    1.4379831439    2.8058994325
H        2.0946152729    0.9251929448    1.3741874260
H        2.0438338095   -2.1210031030    2.0085876813
H        0.5175409406   -2.5223610859    1.1923664617
H        1.6773923824   -1.4506292000    0.4062144004
H       -0.4327916160   -2.7667665025    3.9106912669
H       -1.3768775403   -2.0656026608    2.5499882313
H       -3.7513787079   -2.6674148778    3.8563790393
H       -2.8943892791   -3.3549687315    5.1669009110
23   
torsion grid (-120,)
C       -0.5967098269    0.0560901085    1.3096553130
C        1.6498719667    0.5627411808    2.3227591968
C        1.2358482751   -1.7016887492    1.2946221331
C       -0.7608281114   -1.9108210177    3.5400849698
C        0.6106037333   -0.5252056604    2.0529059966
N       -3.2708345255   -2.4514762759    4.6568888863
O       -2.7929086090   -0.1500856084    3.7475490513
O       -1.6620312979   -0.9683103291    5.9023287991
O        0.2393139843   -0.9621867471    3.4024006937
S       -2.1498580797   -1.1960261001    4.5443765384
H       -1.3414879789   -0.7061645892    1.0608263233
H       -1.0896243906    0.8204203214    1.9138348268
H       -0.2643030706    0.5042187748    0.3679833097
H        2.4854644606    0.1568106488    2.8999877330
H        1.2011023378    1.3797521367    2.8941235713
H        2.0357015090    0.9628250844    1.3805509282
H        2.0786449461   -2.1138660535    1.8574946059
H        0.5114927299   -2.5041769855    1.1174674106
H        1.6004318955   -1.3708704327    0.3171228626
H       -0.4052463487   -2.7748878743    4.1148877141
H       -1.2135626267   -2.2427758882    2.6011749956
H       -3.7050756262   -2.7058413360    3.7735164773
H       -2.9544596214   -3.2416653211    5.2130405617
23   
torsion grid (-105,)
C       -0.5614140638    0.1809765358    1.4366086893
C        1.7414460181    0.4822283022    2.4054327311
C        1.1622087191   -1.6622837907    1.2177465295
C       -0.7437913298   -1.9530644819    3.5551033063
C        0.6300446234   -0.5195832029    2.0915394207
N       -3.2485698633   -2.5174039297    4.6722290401
O       -3.0104214920   -0.4601480966    3.2486036505
O       -1.9158885869   -0.5699778982    5.5651913963
O        0.2906155036   -1.0477684694    3.4204982535
S       -2.2829535042   -1.1855229651    4.2922841004
H       -1.3834590604   -0.5060045159    1.2219615763
H       -0.9527741993    0.9717151115    2.0801848643
H       -0.2407116108    0.6264448127    0.4892620713
H        2.5783396910   -0.0168975146    2.9023451642
H        1.3659096721    1.2672531907    3.0672522484
H        2.1065604461    0.9448579446    1.4838278174
H        1.9836710974   -2.1792566698    1.7227657580
H        0.3839561086   -2.3946367351    0.9781779470
H        1.5346052737   -1.2658447717    0.2682124219
H       -0.4556551996   -2.7196372992    4.2827730016
H       -1.0741404589   -2.4236636346    2.6229791635
H       -3.6007851638   -3.0191543066    3.8610271245
H       -2.8652468955   -3.1158183286    5.3995766221
23   
torsion grid (-90,)
C       -0.4228291184    0.6930127795    1.5857668045
C        1.9572252456    0.2145010845    2.2800160342
C        0.5449924772   -1.6157387861    1.2775403069
C       -0.5483549847   -1.7495884804    3.9005524565
C        0.5438483683   -0.3560540686    2.1446512448
N       -3.0310044897   -2.9331660987    4.5011317802
O       -2.8007213497   -1.5511373965    2.4105904570
O       -2.7796736803   -0.4314189151    4.7200164621
O        0.1469742127   -0.6173272942    3.5432718205
S       -2.4022144772   -1.5214919208    3.8230273093
H       -1.4319583684    0.2862671318    1.4926873337
H       -0.4563764657    1.5612613495    2.2497881089
H       -0.0883952408    1.0243234739    0.5968178368
H        2.6404261567   -0.5363951584    2.6890456214
H        1.9517042050    1.0770559447    2.9522209113
H        2.3346771855    0.5373631680    1.3049043674
H        1.2062947420   -2.3901766246    1.6818284030
H       -0.4613371230   -2.0232497203    1.1457961865
H        0.9221415728   -1.3510709377    0.2855046931
H       -0.3444004191   -1.9525808668    4.9570158337
H       -0.3442661928   -2.6391094295    3.2972685834
H       -2.8563229454   -3.7709427350    3.9518253756
H       -2.8388835858   -3.0375272120    5.4943149675
23   
torsion grid (-75,)
C       -0.4674504197    0.6688440315    1.7225392610
C        1.9574286690    0.2329125821    2.2449648655
C        0.5493731001   -1.6010487775    1.2450958370
C       -0.5146803314   -1.8102290466    3.9048716017
C        0.5571499669   -0.3801005563    2.1670248744
N       -3.0599831840   -2.8237737452    4.5321046106
O       -2.6899905337   -1.8069034220    2.2667458402
O       -2.7539616611   -0.3222666463    4.3590870461
O        0.2843165147   -0.7410378552    3.5721314163
S       -2.3590085209   -1.5516583732    3.6741581905
H       -1.4634382216    0.2401207474    1.6015538077
H       -0.5203787310    1.4758858394    2.4579756692
H       -0.1642039828    1.0932530790    0.7595315984
H        2.6855266978   -0.5102596632    2.5840422639
H        1.9649535430    1.0695255451    2.9494180305
H        2.2663606121    0.6035952541    1.2630869633
H        1.2547374561   -2.3655210590    1.5895449126
H       -0.4480957289   -2.0377451808    1.1505881334
H        0.8655133278   -1.2879065546    0.2456685941
H       -0.3977229153   -1.9766138448    4.9795868035
H       -0.3058033659   -2.7336981692    3.3516680185
H       -2.8869908359   -3.7403533772    4.1268582510
H       -2.9121057302   -2.7782115206    5.5373363087
23   
torsion grid (-60,)
C       -0.4871002586    0.6518845100    1.8157393592
C        1.9581277563    0.2342968394    2.2131862186
C        0.5434713684   -1.5927690375    1.2129360548
C       -0.5036102925   -1.8209194692    3.9453728802
C        0.5655464310   -0.4019296305    2.1748635414
N       -3.0675099665   -2.7717172199    4.5064799785
O       -2.5961112528   -1.9304282970    2.1938184235
O       -2.7585370732   -0.2898803669    4.1601452672
O        0.3895359352   -0.8399610830    3.5710473789
S       -2.3289125591   -1.5655655934    3.5894012745
H       -1.4755405786    0.2211920077    1.6558767897
H       -0.5550885232    1.4018020785    2.6078683722
H       -0.1908794053    1.1513216548    0.8872970244
H        2.7114981874   -0.5057936176    2.4989576297
H        1.9822558908    1.0506425613    2.9408483315
H        2.2181580544    0.6374149704    1.2301695517
H        1.2770998258   -2.3490027560    1.5133166044
H       -0.4465961725   -2.0496488280    1.1492734393
H        0.8122142476   -1.2482725915    0.2096228521
H       -0.4491353187   -1.8965619654    5.0346046551
H       -0.3069200486   -2.8005073414    3.4865310403
H       -2.8829894255   -3.7157860101    4.1766935835
H       -2.9674310970   -2.6530015278    5.5115326472
23   
torsion grid (-45,)
C       -0.4918371331    0.6386913055    1.8774994923
C        1.9624760111    0.2266115796    2.1933630249
C        0.5404305213   -1.5753503120    1.1595130076
C       -0.5100882597   -1.8094640253    3.9901530446
C        0.5748917823   -0.4221607582    2.1672232535
N       -3.0639523697   -2.7570613688    4.4928171011
O       -2.5289843189   -2.0181603507    2.1595517577
O       -2.7911554214   -0.2923118233    4.0398094375
O        0.4613938240   -0.9333268881    3.5430912447
S       -2.3165949989   -1.5833350932    3.5432186889
H       -1.4738331435    0.2121006644    1.6755231457
H       -0.5758164825    1.3336703791    2.7166628854
H       -0.1932490518    1.2033026774    0.9880636916
H        2.7259497745   -0.5110077349    2.4570430981
H        1.9918503181    1.0342038989    2.9306393445
H        2.2025851415    0.6431265640    1.2109409163
H        1.3097876928   -2.3169418263    1.4000006729
H       -0.4367069790   -2.0615585577    1.1317100083
H        0.7463376950   -1.1894492837    0.1560212326
H       -0.4998884881   -1.7656927627    5.0826775535
H       -0.3341576622   -2.8432148972    3.6543459046
H       -2.8481206925   -3.7132623939    4.2225185064
H       -3.0097720343   -2.5825997060    5.4931958855
23   
torsion grid (-30,)
C       -0.4860655452    0.6322773160    1.9202478721
C        1.9711547139    0.2083464526    2.1852639972
C        0.5357408906   -1.5492010498    1.0961069815
C       -0.5241700305   -1.7866840222    4.0316635816
C        0.5831646733   -0.4396944421    2.1519154354
N       -3.0603588669   -2.7638609890    4.4889406998
O       -2.4728662264   -2.1045869454    2.1419688272
O       -2.8347908641   -0.3183303057    3.9469795212
O        0.5016952142   -1.0185472568    3.5020955301
S       -2.3130120649   -1.6137574184    3.5127480605
H       -1.4689804171    0.2166139899    1.7012014501
H       -0.5673985963    1.2892088997    2.7898778749
H       -0.1915433474    1.2376794036    1.0567236968
H        2.7356798792   -0.5369865286    2.4224005412
H        2.0075354174    0.9959064719    2.9435955012
H        2.2032409964    0.6498494394    1.2118475475
H        1.3196159293   -2.2891454268    1.2888897198
H       -0.4350262304   -2.0475461149    1.0787770844
H        0.7098436481   -1.1212971970    0.1033273177
H       -0.5520052361   -1.6000480856    5.1097321213
H       -0.3590329915   -2.8591976199    3.8451574085
H       -2.8080189811   -3.7254483523    4.2755782393
H       -3.0528562396   -2.5387409314    5.4805438889
23   
torsion grid (-15,)
C       -0.4740524267    0.6339502889    1.9589281379
C        1.9823459765    0.1828019507    2.1854333752
C        0.5252476154   -1.5136484147    1.0316464741
C       -0.5379511358   -1.7641771295    4.0621700810
C        0.5892258247   -0.4535110926    2.1361886180
N       -3.0611770707   -2.7732158439    4.5007487374
O       -2.4155192754   -2.2348742915    2.1342106971
O       -2.8770362280   -0.3635147693    3.8254904905
O        0.5208077397   -1.0978781141    3.4574405924
S       -2.3100975638   -1.6665670094    3.4792328185
H       -1.4629775653    0.2349124933    1.7359792486
H       -0.5420227895    1.2595585531    2.8526979064
H       -0.1848638187    1.2696840150    1.1156848872
H        2.7424162698   -0.5776977323    2.3856071034
H        2.0311941479    0.9384934355    2.9748415207
H        2.2105005262    0.6608879474    1.2284402144
H        1.3067693927   -2.2648574850    1.1849026719
H       -0.4470260555   -2.0077192622    1.0055957758
H        0.6921627517   -1.0420645406    0.0572753295
H       -0.6067970635   -1.4306453780    5.1038732268
H       -0.3669962430   -2.8502346975    4.0337667180
H       -2.7758749800   -3.7390130370    4.3604952123
H       -3.0967323036   -2.4838605991    5.4749330613
23   
torsion grid (0,)
C        0.0681387283   -1.0255621900    0.7562772647
C        1.1817540181    0.9830357143    1.7852974574
C        1.3911311790   -1.2455754639    2.9152409754
C       -1.6445649096   -0.6230788520    3.5368815485
C        0.4828712671   -0.3511196205    2.0677004127
N       -3.0836932504   -2.7652939551    4.5043808096
O       -0.6020411038   -2.7811654727    4.8503100026
O       -1.5946382225   -3.1624426438    2.5173889009
O       -0.7165195996    0.0974071860    2.7938210437
S       -1.5800012229   -2.4714501282    3.8074562024
H       -0.4776142700   -1.9522046223    0.9382703880
H       -0.5616602273   -0.3496608954    0.1691926264
H        0.9593840824   -1.2627597784    0.1652105380
H        1.4900389316    1.4608883685    2.7198796353
H        0.5077101518    1.6613628529    1.2546681998
H        2.0688972426    0.8185033578    1.1667635911
H        1.5163101187   -0.8344181625    3.9206374416
H        1.0266565481   -2.2685862500    3.0017244864
H        2.3763932500   -1.2917690822    2.4400859236
H       -2.6359408540   -0.4990775457    3.0817287086
H       -1.6643051061   -0.2449051394    4.5671971603
H       -3.1921238342   -2.3770505569    5.4379763037
H       -3.8746371923   -2.5982678335    3.8874932775
23   
torsion grid (15,)
C        0.0112879843   -0.9894056791    0.7771169172
C        1.2057240438    0.9743975704    1.8013745385
C        1.4016020175   -1.2773022237    2.8877506602
C       -1.6587921645   -0.6223181685    3.5071913972
C        0.4862424561   -0.3484007352    2.0853710293
N       -3.0628181977   -2.7720468203    4.4994393287
O       -0.5965542216   -2.6878488036    4.9544046166
O       -1.4757292502   -3.1924456010    2.5990179724
O       -0.6704032947    0.1158642085    2.8678193556
S       -1.5388650090   -2.4527403425    3.8607713987
H       -0.5390590279   -1.9134510881    0.9597620217
H       -0.6285590820   -0.2921531815    0.2266501593
H        0.8755053558   -1.2281627952    0.1480106898
H        1.5437903479    1.4351275367    2.7341447361
H        0.5345716340    1.6723879672    1.2929454127
H        2.0758100581    0.7985656315    1.1622421518
H        1.5638060876   -0.8865134656    3.8956218062
H        1.0194030737   -2.2945870101    2.9649915505
H        2.3706177327   -1.3341377644    2.3811689626
H       -2.5944844660   -0.5805932221    2.9307432988
H       -1.8215232751   -0.1934016731    4.5025194842
H       -3.2315541471   -2.3472417220    5.4077865080
H       -3.8284729307   -2.6667833315    3.8387389022
23   
torsion grid (30,)
C       -0.0470977904   -0.9547827285    0.8074760070
C        1.2272050997    0.9666458511    1.8173834255
C        1.4153948143   -1.3052633579    2.8618425299
C       -1.6639354106   -0.6255303822    3.4673126559
C        0.4909985516   -0.3456126136    2.1064560966
N       -3.0492457889   -2.7756869209    4.4939458623
O       -0.6036808297   -2.5923822709    5.0514700274
O       -1.3699395546   -3.2284081740    2.6875575722
O       -0.6213478466    0.1257132219    2.9462369061
S       -1.5066345815   -2.4357545625    3.9116967517
H       -0.6048548163   -1.8740177682    0.9944272172
H       -0.6937441533   -0.2369495014    0.2920085366
H        0.7870147713   -1.1992107634    0.1414910671
H        1.6056440738    1.4054046369    2.7452387212
H        0.5541090547    1.6863140544    1.3427542193
H        2.0722545830    0.7837563405    1.1474795640
H        1.6143650238   -0.9342303438    3.8703937768
H        1.0174123489   -2.3169645632    2.9321940034
H        2.3668003050   -1.3690432255    2.3236152392
H       -2.5196857484   -0.6576138322    2.7752129920
H       -1.9684432195   -0.1572426695    4.4084932337
H       -3.2775183240   -2.3105708677    5.3689148202
H       -3.7835248375   -2.7317602724    3.7919816728
23   
torsion grid (45,)
C       -0.0973539471   -0.9249544204    0.8436783192
C        1.2389149232    0.9641309586    1.8355793436
C        1.4389446956   -1.3287183726    2.8336083378
C       -1.6645116787   -0.6333616249    3.4185405677
C        0.4989794267   -0.3446473941    2.1298134699
N       -3.0453055773   -2.7765661418    4.5015539668
O       -0.6153084573   -2.5100722607    5.1169546691
O       -1.3074044708   -3.2629062425    2.7638933760
O       -0.5680798687    0.1155655862    3.0335687373
S       -1.4931466347   -2.4227385112    3.9506257041
H       -0.6405279957   -1.8534033026    1.0305303711
H       -0.7679646121   -0.1991544216    0.3712395727
H        0.7078694369   -1.1495292211    0.1369290751
H        1.6434938729    1.3891483047    2.7587914689
H        0.5610589478    1.6952845973    1.3856602700
H        2.0665667930    0.7821623394    1.1440809180
H        1.6847558042   -0.9700616923    3.8361978564
H        1.0239206081   -2.3330481520    2.9121367901
H        2.3656911365   -1.4040076463    2.2552404757
H       -2.4195691779   -0.7182558923    2.6216467144
H       -2.0980649138   -0.1376716674    4.2914395208
H       -3.3167978934   -2.2704965793    5.3407889480
H       -3.7546146922   -2.7898889564    3.7730844254
23   
torsion grid (60,)
C       -0.1356944590   -0.9002179384    0.8766160179
C        1.2366351714    0.9697029075    1.8564276339
C        1.4780959526   -1.3505779351    2.7888857591
C       -1.6545057317   -0.6483984231    3.3755031033
C        0.5125605085   -0.3477818759    2.1488070916
N       -3.0647534719   -2.7750320892    4.5073462486
O       -0.6612851494   -2.4275835979    5.1983911396
O       -1.2523080422   -3.2997432684    2.8586789808
O       -0.5058036084    0.0722303826    3.1279417995
S       -1.4988493966   -2.4117238485    4.0000864714
H       -0.6387457646   -1.8533938704    1.0538765774
H       -0.8497877882   -0.1811757871    0.4602290887
H        0.6403017950   -1.0723776493    0.1244663670
H        1.6525452325    1.3865835400    2.7782326141
H        0.5457362177    1.7013733256    1.4271449902
H        2.0550620720    0.8040394886    1.1499043790
H        1.7953230368   -0.9934514769    3.7718889148
H        1.0403436847   -2.3424272131    2.9014681268
H        2.3633035791   -1.4511116410    2.1521046441
H       -2.3052825542   -0.7642106725    2.4969289193
H       -2.1877025048   -0.1254554763    4.1738433649
H       -3.3823233896   -2.2309768636    5.3057155675
H       -3.7413196648   -2.8414807306    3.7510950988
23   
torsion grid (75,)
C       -0.1562999918   -0.8814905585    0.8956511555
C        1.2215302477    0.9829907457    1.8810782092
C        1.5360930031   -1.3726770239    2.7146716006
C       -1.6287753346   -0.6752026847    3.3532180465
C        0.5343976453   -0.3567625758    2.1559389921
N       -3.1213870724   -2.7617088130    4.5012014507
O       -0.7759078735   -2.3385398040    5.3383238603
O       -1.1853539974   -3.3401375273    3.0112478355
O       -0.4310587578   -0.0122494939    3.2181266353
S       -1.5269361457   -2.3998826575    4.0858412758
H       -0.6288805560   -1.8530703005    1.0608161679
H       -0.9003678873   -0.1689535921    0.5224817550
H        0.5959143376   -1.0124688741    0.1121491979
H        1.6635302837    1.3766326258    2.8008138784
H        0.5016255269    1.7153750715    1.5032487618
H        2.0165909717    0.8585414116    1.1399174257
H        1.9307638787   -1.0219824862    3.6718718725
H        1.0822969647   -2.3539091413    2.8619288297
H        2.3702057705   -1.4890042397    2.0145368707
H       -2.1870260805   -0.8167440773    2.4200619881
H       -2.2289011399   -0.1111167531    4.0729620113
H       -3.4983861504   -2.1815331493    5.2466556678
H       -3.7421219177   -2.8692968156    3.7028394100
23   
torsion grid (90,)
C       -0.1840291522   -0.8724065679    0.9165445927
C        1.1898660755    0.9966270843    1.9005484277
C        1.6225364665   -1.3910775728    2.5986014816
C       -1.5769586843   -0.7016733163    3.3912371434
C        0.5639137510   -0.3763433134    2.1547654230
N       -3.2019868965   -2.7594261255    4.4159491407
O       -1.0330767024   -2.2119446730    5.5846701228
O       -1.0332410927   -3.3522697188    3.2852526167
O       -0.3251797772   -0.1363888543    3.3096889543
S       -1.5699552264   -2.3699556540    4.2348113652
H       -0.6155100520   -1.8657024449    1.0692161005
H       -0.9684194159   -0.1736679655    0.6050642645
H        0.5292902697   -0.9500555042    0.0909712714
H        1.6673897075    1.3667323594    2.8120768982
H        0.4271457162    1.7191356033    1.5937046847
H        1.9478179701    0.9319965610    1.1138562250
H        2.1052134749   -1.0490872248    3.5183682563
H        1.1746216500   -2.3697236443    2.7831874494
H        2.3886875300   -1.4994532382    1.8234239577
H       -2.0837904485   -0.8665276931    2.4358335189
H       -2.1910289344   -0.0713148830    4.0427617315
H       -3.7020656786   -2.1586604992    5.0664999337
H       -3.6896948254   -2.9220034277    3.5385493382
23   
torsion grid (105,)
C       -0.1229986591   -0.3521244699    0.5814480402
C        1.3476072154    0.8836727532    2.2109166470
C        1.2130632569   -1.6270159782    2.3152223239
C       -1.6329785624   -1.0471358328    3.1147334746
C        0.4517121348   -0.3376713634    2.0034099614
N       -2.9321685907   -2.8404010163    4.8284049030
O       -1.4160577519   -1.0801604035    5.8127054251
O       -0.4491320154   -3.0705019883    4.5164647528
O       -0.6382362934   -0.1013800028    2.9607511015
S       -1.4588518385   -2.0258090800    4.7001215123
H       -0.7692907666   -1.2188891739    0.4069866105
H       -0.7014267802    0.5573710548    0.3934455658
H        0.6888948921   -0.4033035323   -0.1504453269
H        1.7145062537    0.9119068616    3.2404237666
H        0.7905399958    1.8049771279    2.0177476005
H        2.2055515923    0.8443215590    1.5333669545
H        1.5910137922   -1.6204435141    3.3397863134
H        0.5910104385   -2.5177490033    2.1993789596
H        2.0613406107   -1.7189374342    1.6291217365
H       -1.6896728281   -1.7963535396    2.3179220976
H       -2.5969458975   -0.5378993786    3.2224603290
H       -3.7341060625   -2.2311261124    4.9689438351
H       -3.0718284110   -3.5585382460    4.1222663143
23   
torsion grid (120,)
C       -0.1823627202   -0.2559859360    0.5924691607
C        1.4439436730    0.7727039753    2.2212893949
C        1.1522835913   -1.7259065641    2.1756100572
C       -1.5908727602   -1.0651835321    3.1289858154
C        0.4610318466   -0.3725952052    1.9790052708
N       -2.8694514369   -2.8610596251    4.8551826207
O       -1.8862118524   -0.7406812180    5.7913440422
O       -0.3618317513   -2.6279116035    4.9510590744
O       -0.5603980734   -0.1474216854    3.0065865535
S       -1.5610308615   -1.7966058358    4.8357582864
H       -0.9116543238   -1.0533981177    0.4126639232
H       -0.6896794756    0.7076114447    0.4869629937
H        0.5821275892   -0.3324649516   -0.1870002840
H        1.8695534143    0.6984759474    3.2256326304
H        0.9350411384    1.7367630358    2.1329965802
H        2.2575619610    0.7371105156    1.4909151555
H        1.5110761480   -1.8298108022    3.2016075411
H        0.4874967094   -2.5695865761    1.9660727124
H        2.0019759693   -1.8045959388    1.4901243921
H       -1.5360587245   -1.9140953245    2.4411932083
H       -2.5671811697   -0.5721297796    3.0443189794
H       -3.7765845198   -2.4045076244    4.8055176067
H       -2.7672286463   -3.6619153118    4.2372871830
23   
torsion grid (135,)
C       -0.2357186074   -0.2142769778    0.6405473926
C        1.4673187817    0.7599972443    2.2237242151
C        1.2187260532   -1.7392697576    2.0621884424
C       -1.5135532546   -1.1578807286    3.1441521101
C        0.4923303817   -0.3912561166    1.9777183224
N       -2.9481704299   -2.8150788302    4.8724227123
O       -2.0917546655   -0.6073508559    5.7189000851
O       -0.4654904092   -2.5269266252    5.1952948865
O       -0.4578829294   -0.2587566539    3.0816950484
S       -1.6564426234   -1.7322640605    4.8957835008
H       -0.9596154131   -1.0165644068    0.4608267239
H       -0.7659177156    0.7426365004    0.6175646920
H        0.4818572818   -0.2316267056   -0.1856477550
H        1.9563121490    0.6398142645    3.1942112281
H        0.9352776218    1.7154807241    2.2224274629
H        2.2340679467    0.7834537554    1.4437541718
H        1.6247686548   -1.8870644672    3.0659166866
H        0.5613534763   -2.5840642556    1.8329910587
H        2.0397198284   -1.7648865743    1.3389568763
H       -1.3760370090   -2.0664155312    2.5501049251
H       -2.4747822175   -0.6861541132    2.8995024405
H       -3.8502251995   -2.3815673148    4.6931536996
H       -2.7745959765   -3.6631692267    4.3393939719
23   
torsion grid (150,)
C       -0.2855043540   -0.1757448889    0.6955798040
C        1.4798318331    0.7494105992    2.2410477711
C        1.2898929933   -1.7407958487    1.9286286194
C       -1.4186452228   -1.2842724657    3.1680333673
C        0.5232809861   -0.4130917178    1.9758990405
N       -3.0446654760   -2.7418033592    4.8881009938
O       -2.2534058415   -0.4590485593    5.5875677692
O       -0.6114698859   -2.4309629710    5.4522203991
O       -0.3617660120   -0.3830537736    3.1381594039
S       -1.7483756507   -1.6673260274    4.9421825269
H       -0.9761306256   -1.0011268707    0.4910438897
H       -0.8635743855    0.7500183082    0.7750176584
H        0.3851968784   -0.0899664898   -0.1649328871
H        2.0168079981    0.5890780485    3.1799114650
H        0.9243542066    1.6881238606    2.3192373873
H        2.2082116451    0.8374796488    1.4295526465
H        1.7654026105   -1.9357993865    2.8935456894
H        0.6428717485   -2.5895323917    1.6846327802
H        2.0647913833   -1.6960179017    1.1572063669
H       -1.2025614516   -2.2494504255    2.6969064022
H       -2.3524842637   -0.8657508243    2.7667054783
H       -3.9158443342   -2.3294939740    4.5647640944
H       -2.8246690546   -3.6440633027    4.4745722319
23   
torsion grid (165,)
C       -0.3326404589   -0.1305263354    0.7569931167
C        1.4965310627    0.7259932630    2.2665818442
C        1.3299719933   -1.7421731485    1.7945179595
C       -1.3182435414   -1.4156254868    3.2010146102
C        0.5465715967   -0.4357425022    1.9750769585
N       -3.1142194139   -2.6757111888    4.8961810885
O       -2.4137051700   -0.3117049841    5.3891820175
O       -0.7618214612   -2.2577342599    5.6841112107
O       -0.2696686971   -0.5040267252    3.1838199788
S       -1.8356598354   -1.5818912275    4.9608341852
H       -1.0045377993   -0.9619378353    0.5182462059
H       -0.9351217504    0.7656032204    0.9346462041
H        0.2935071499    0.0452603885   -0.1230402541
H        2.0865630203    0.5146902679    3.1626078879
H        0.9294535728    1.6449967814    2.4386125873
H        2.1778363969    0.8836035084    1.4253052817
H        1.8646923919   -1.9914574594    2.7153339850
H        0.6814288029   -2.5836217750    1.5298015226
H        2.0598985542   -1.6314954084    0.9867330467
H       -1.0396134074   -2.4266598080    2.8781909225
H       -2.2074493157   -1.0725571073    2.6536823720
H       -3.9453007224   -2.3215947749    4.4299917176
H       -2.8469272435   -3.6188781159    4.6271584492
23   
torsion grid (180,)
C       -0.3755969470   -0.0386164574    0.8267506585
C        1.5434198677    0.6737014226    2.2962750260
C        1.2996421165   -1.7515770753    1.6576316927
C       -1.1993619197   -1.5507259654    3.2556772869
C        0.5560983033   -0.4481539178    1.9739243222
N       -3.1341527962   -2.6517464981    4.9025687287
O       -2.6517537266   -0.1886635391    5.0532414396
O       -0.9472744868   -1.9153573529    5.9012464493
O       -0.2006212320   -0.5854310596    3.2149848269
S       -1.9444850756   -1.4605452769    4.9367822872
H       -1.0647692478   -0.8422042654    0.5468614371
H       -0.9609556695    0.8417767606    1.1082196650
H        0.2126159544    0.2075355409   -0.0625259965
H        2.1773987092    0.3883970993    3.1402764144
H        1.0038455688    1.5857169122    2.5659567616
H        2.1801484275    0.8831109524    1.4316728273
H        1.8844711253   -2.0755189760    2.5237115000
H        0.6166351455   -2.5592388909    1.3743971311
H        1.9837213677   -1.5967841942    0.8177245388
H       -0.8287297476   -2.5790235830    3.1484507627
H       -2.0239165003   -1.3676998907    2.5535948500
H       -3.9097819014   -2.4513337581    4.2767521292
H       -2.7750516106   -3.6008087003    4.8414081595
