25   
torsion grid (-165,)
C        0.1108534270   -5.3569423604    2.6340973227
C       -1.0295995473   -4.5623157629    2.4898302389
C        0.1891131283   -5.6161526625    0.2098379138
C       -0.9491642684   -4.8141475525    0.0616840879
C        0.6896767076   -5.8729231834    1.4789652707
C       -1.5509448224   -4.3143540132    1.2270724137
C       -1.3137158357   -0.5478029971   -0.6203388296
C       -0.0848452784   -1.2033172990    0.0234866614
C       -0.7617544984   -2.3664176291   -1.8672955565
C       -1.9046139453   -3.3760143798   -1.6516509522
O       -1.2906377513   -1.0561015216   -1.9621854959
O        0.1457652557   -2.3757654688   -0.7724146200
O       -1.4339688878   -4.6583274917   -1.2079798299
F        1.7980813784   -6.6502649238    1.5920054649
F       -2.6820355528   -3.5518307378    1.1387069416
H        0.5348549659   -5.5770224087    3.6078108173
H       -1.5373415025   -4.1442404027    3.3537050517
H        0.6788703392   -6.0133072977   -0.6725594042
H       -2.2405835208   -0.8356482615   -0.1097779872
H       -1.2545299911    0.5405636068   -0.6757165005
H        0.8026320378   -0.5640060498   -0.0304962963
H       -0.2587886882   -1.5003829095    1.0622903690
H       -0.2038937403   -2.5818624733   -2.7832068597
H       -2.3983998045   -3.5708282784   -2.6057355307
H       -2.6380777803   -2.9647793176   -0.9583771568
25   
torsion grid (-150,)
C       -0.0052993524   -5.1226945672    2.6572159773
C       -1.2565614361   -4.5363573034    2.4535163563
C        0.2483473744   -5.3457174193    0.2404545771
C       -1.0021617604   -4.7506120083    0.0325642748
C        0.7159123424   -5.5223182567    1.5349760414
C       -1.7436272403   -4.3714754501    1.1620642268
C       -1.1276067984   -0.7829330526   -0.3500558409
C        0.2023920866   -1.5039406699   -0.0966109567
C       -0.8670379520   -2.3378428865   -1.9778788836
C       -1.9732739365   -3.3917755801   -1.7071334738
O       -1.3720925347   -1.0355090226   -1.7409825162
O        0.2473181869   -2.5159608578   -1.1147319193
O       -1.4573084849   -4.6527794716   -1.2539927848
F        1.9352627110   -6.0943122978    1.7116876555
F       -2.9870317500   -3.8310391427    1.0063441307
H        0.3985936862   -5.2752912554    3.6522861901
H       -1.8756803255   -4.2240512014    3.2889392767
H        0.8492864518   -5.6326627393   -0.6150609752
H       -1.9346871627   -1.1950044571    0.2688993223
H       -1.0805736830    0.2982227479   -0.2102845406
H        1.0642450819   -0.8404215180   -0.2234350792
H        0.2462089370   -1.9805303589    0.8875454477
H       -0.5153951520   -2.3812802281   -3.0122552248
H       -2.4983590118   -3.6167365199   -2.6374421527
H       -2.6955226034   -2.9867829536   -0.9977282126
25   
torsion grid (-135,)
C       -2.8130435653   -2.1746256216   -0.0253711552
C       -2.9173463400   -2.6855513052   -1.3262884171
C       -1.8338292739   -0.1292509254   -0.9428321031
C       -1.9361793390   -0.6443544424   -2.2410836662
C       -2.2724474835   -0.9064554338    0.1266281515
C       -2.4853126252   -1.9287088363   -2.4026481161
C        1.8656622883    1.7048622392   -1.1099155536
C        1.6089578963    0.1958049463   -1.1147257868
C        0.5268108970    1.2388101618   -2.8775495487
C       -0.9724037645    1.2875409998   -3.2697312190
O        0.7566632209    2.2069063061   -1.8662340597
O        0.9197472353   -0.0239732135   -2.3551101837
O       -1.5700751979    0.0021139549   -3.3818617936
F       -2.1452192409   -0.3865568126    1.3787621819
F       -2.5907095731   -2.4320485600   -3.6557437548
H       -3.1372934751   -2.7426551673    0.8397010386
H       -3.3321248034   -3.6713970338   -1.5122961499
H       -1.4042145541    0.8440592371   -0.7407442767
H        1.8343542550    2.1606670359   -0.1189130852
H        2.8129538377    1.9583702113   -1.6050160022
H        2.5262416973   -0.3991017893   -1.1101057748
H        0.9659857145   -0.1143817214   -0.2829824637
H        1.1609953193    1.4539316817   -3.7513884697
H       -1.0747675317    1.7303511868   -4.2618842452
H       -1.5104041423    1.9182994971   -2.5556151541
25   
torsion grid (-120,)
C       -2.7494353421   -2.0635436052    0.0315851017
C       -2.8510990975   -2.6323858314   -1.2456955099
C       -1.8019987949   -0.0473007697   -0.9797358704
C       -1.9020300601   -0.6213015801   -2.2530352911
C       -2.2262875781   -0.7826138342    0.1251632110
C       -2.4338134936   -1.9193892201   -2.3570393246
C        1.7133750467    1.5600688172   -0.9780527624
C        1.6150096003    0.0581474543   -1.2605317771
C        0.5106769412    1.2896866129   -2.8808157556
C       -0.9610468567    1.2733448133   -3.3732217135
O        0.5993842756    2.0879523166   -1.7084935461
O        0.9974717861   -0.0030979283   -2.5567735722
O       -1.5454396476   -0.0218111012   -3.4207926765
F       -2.1019866809   -0.2066708917    1.3528296983
F       -2.5374704621   -2.4788507123   -3.5860253345
H       -3.0630661533   -2.5974207631    0.9219896823
H       -3.2527952144   -3.6311240357   -1.3858390800
H       -1.3810745497    0.9390689434   -0.8271461193
H        1.5864504152    1.8248936309    0.0729851921
H        2.6528568685    1.9852659526   -1.3565742648
H        2.5888352164   -0.4365866003   -1.3087139981
H        0.9754421839   -0.4544742066   -0.5339346769
H        1.1611036572    1.7180919854   -3.6595559885
H       -1.0026487457    1.6234161814   -4.4055389212
H       -1.5499440820    1.9568292124   -2.7521385403
25   
torsion grid (-105,)
C       -2.7500570905   -2.0008723497    0.0847199136
C       -2.7772242074   -2.6185453248   -1.1736185204
C       -1.8284762941    0.0108210390   -0.9605878806
C       -1.8544159415   -0.6114116682   -2.2146035400
C       -2.2753751378   -0.6995591732    0.1521138965
C       -2.3377231719   -1.9312369743   -2.2925121467
C        1.5939495170    1.3993473537   -0.8802373712
C        1.6347996646   -0.0119587982   -1.4635997004
C        0.5059356069    1.4178297707   -2.8910443969
C       -0.9466947531    1.2754638127   -3.4100158065
O        0.5011477447    1.9967491058   -1.5901371346
O        1.1949279448    0.1815942323   -2.8173010421
O       -1.4639809055   -0.0500362710   -3.3892401249
F       -2.2258392500   -0.0762120336    1.3613899773
F       -2.3708600128   -2.5370782876   -3.5030158234
H       -3.0836498310   -2.5132460542    0.9805078020
H       -3.1388513528   -3.6351060856   -1.2931121493
H       -1.4412843929    1.0136878959   -0.8307204690
H        1.3640185275    1.4331806890    0.1864157581
H        2.5231216124    1.9500792153   -1.0785485966
H        2.6369241405   -0.4470009125   -1.4859879345
H        0.9477203367   -0.6868064080   -0.9414128231
H        1.0617682625    2.0779029545   -3.5748371278
H       -0.9715094780    1.5456699353   -4.4669781111
H       -1.5905262194    1.9707020757   -2.8592811849
25   
torsion grid (-90,)
C       -2.9125417881   -1.8909586471    0.1632681678
C       -2.7757422104   -2.5884912993   -1.0444460864
C       -1.8472240714    0.0523764732   -0.8742208593
C       -1.7191861993   -0.6465988404   -2.0811670198
C       -2.4426376692   -0.5864110289    0.2117309806
C       -2.1913564720   -1.9711308823   -2.1382214593
C        1.5227303657    1.1745311173   -0.8235328073
C        1.7399324301    0.0158957681   -1.7955657075
C        0.5389783054    1.6343306469   -2.8724934864
C       -0.8699465173    1.2302307369   -3.3471422215
O        0.5272726900    1.9746280308   -1.4830156509
O        1.5123024230    0.6348137264   -3.0702208499
O       -1.1565787652   -0.1637738518   -3.2231051088
F       -2.5493203846    0.1096700700    1.3755224562
F       -2.0665151032   -2.6528847441   -3.3016435779
H       -3.3651694031   -2.3456406856    1.0377102497
H       -3.1247171717   -3.6114215871   -1.1457762291
H       -1.4647926795    1.0595901361   -0.7604909022
H        1.1282913232    0.8609472380    0.1462957942
H        2.4358163286    1.7645795416   -0.6799786762
H        2.7579914946   -0.3780056879   -1.7920323515
H        1.0259344574   -0.7977730583   -1.6279290329
H        0.8461153030    2.5178541240   -3.4491235517
H       -0.9294791829    1.4176336522   -4.4222906950
H       -1.6206717492    1.8481262169   -2.8437282929
25   
torsion grid (-75,)
C       -3.0974100240   -1.8321715853    0.2005337407
C       -2.8236351763   -2.5868968697   -0.9475740410
C       -1.9644761335    0.0814348084   -0.8218481509
C       -1.7042297616   -0.6735263742   -1.9720715371
C       -2.6574508386   -0.5162426152    0.2287826279
C       -2.1420129562   -2.0102217445   -2.0071873569
C        1.5476087879    0.9991270248   -0.8882766117
C        1.8829737293    0.0800722375   -2.0641192704
C        0.4760440188    1.7097870684   -2.8229287228
C       -0.8701327266    1.1655650335   -3.3110069035
O        0.4924041744    1.8300044094   -1.4006089621
O        1.5686790851    0.8996877036   -3.1999588928
O       -1.0357694454   -0.2354734095   -3.0762707070
F       -2.8957285200    0.2331975044    1.3381804298
F       -1.8861275970   -2.7465212154   -3.1151535688
H       -3.6303581793   -2.2522066508    1.0466389294
H       -3.1423006684   -3.6212948634   -1.0306020685
H       -1.6007243469    1.0961427787   -0.7183306586
H        1.1743861959    0.4619686630   -0.0123604837
H        2.3989025055    1.6279548544   -0.6027998701
H        2.9403324285   -0.1846382981   -2.1246736168
H        1.2697574700   -0.8267792116   -2.0653179706
H        0.6249302348    2.7018728808   -3.2714361448
H       -0.9047864150    1.2744418084   -4.3985991768
H       -1.6882748369    1.7477592387   -2.8737455354
25   
torsion grid (-60,)
C       -3.2141478469   -1.7619155607    0.1703907029
C       -2.7555374232   -2.5611803669   -0.8846449625
C       -2.1427019440    0.1770673870   -0.8705550409
C       -1.6980125011   -0.6227347695   -1.9300665255
C       -2.8920852666   -0.4121387835    0.1454477371
C       -2.0155277512   -1.9932807400   -1.9090508265
C        1.5619568618    0.8027446756   -0.9415118943
C        2.0000667630    0.1927929225   -2.2763789758
C        0.4397870461    1.8054855347   -2.7139299463
C       -0.8398718301    1.1930192664   -3.2900641953
O        0.4725464810    1.6699848585   -1.2977989262
O        1.6073162410    1.1944961964   -3.2272790212
O       -0.9627443308   -0.2014398205   -2.9974840905
F       -3.3103052209    0.3825113526    1.1664016292
F       -1.5785751447   -2.7733205093   -2.9278842991
H       -3.7972991954   -2.1729592382    0.9872702571
H       -2.9741882434   -3.6237926077   -0.9228299126
H       -1.8753191360    1.2226837215   -0.7955076239
H        1.1980221148    0.0580599532   -0.2284457778
H        2.3568066090    1.3992540312   -0.4797475474
H        3.0805965741    0.0598586844   -2.3589409998
H        1.4883590589   -0.7519652624   -2.4843023672
H        0.4744782684    2.8689151658   -2.9867622008
H       -0.7926299149    1.2617404970   -4.3801012357
H       -1.7163055128    1.7495550209   -2.9405715386
25   
torsion grid (-45,)
C       -3.2232457345   -1.6614438325    0.2208582820
C       -2.6152689564   -2.5066876470   -0.7163024449
C       -2.2371370271    0.2653781672   -0.9210734507
C       -1.6438967228   -0.5817153427   -1.8641602736
C       -3.0139681027   -0.2956911335    0.0900686246
C       -1.8448140213   -1.9679016148   -1.7336779034
C        1.5419567868    0.5596936110   -1.0589619617
C        2.1165358519    0.3671886627   -2.4740289785
C        0.4204849528    1.8880603339   -2.5918774125
C       -0.7709254447    1.1880040341   -3.2701788735
O        0.5120805846    1.5512069570   -1.2185339296
O        1.6522199978    1.5244382028   -3.1862776252
O       -0.8694733449   -0.1937162876   -2.9160134520
F       -3.5784828818    0.5463786166    0.9957593595
F       -1.2590789300   -2.7924823843   -2.6370773181
H       -3.8337382662   -2.0491220816    1.0290976718
H       -2.7395353296   -3.5839614205   -0.6672415384
H       -2.0708474878    1.3341262687   -0.9251546044
H        1.1052786793   -0.3602526457   -0.6585731114
H        2.2807634254    0.9521155413   -0.3536027198
H        3.2079903397    0.3757213730   -2.5023459258
H        1.7393465861   -0.5471447231   -2.9428748864
H        0.3107761869    2.9740315461   -2.6942636386
H       -0.6157578545    1.2091344953   -4.3514334265
H       -1.7049082041    1.7127682942   -3.0409820113
25   
torsion grid (-30,)
C       -3.3278068657   -1.6217797710    0.2501302930
C       -2.6361483913   -2.4957849459   -0.5984111842
C       -2.3627021081    0.2717160651   -0.9632699300
C       -1.6845581296   -0.6054692403   -1.8166631021
C       -3.1679184059   -0.2590629971    0.0416896219
C       -1.8344937803   -1.9878900302   -1.6072499020
C        1.6191265871    0.3669582694   -1.1683597662
C        2.1799895294    0.5067766373   -2.5965612125
C        0.3658277266    1.8560206321   -2.4108005400
C       -0.7420812155    1.1253055398   -3.2143754096
O        0.5314510177    1.3077271051   -1.1178175497
O        1.6232106344    1.7477881117   -3.0558604693
O       -0.8786113668   -0.2496291590   -2.8554854205
F       -3.8150114788    0.6124089561    0.8601796902
F       -1.1646439105   -2.8397571546   -2.4233467434
H       -3.9637056818   -1.9847547804    1.0501938666
H       -2.7175710380   -3.5723331284   -0.4854637990
H       -2.2485823395    1.3456118355   -1.0303023377
H        1.2465487132   -0.6416861601   -0.9667799732
H        2.3428388764    0.6536945587   -0.3999213605
H        3.2673151265    0.5953420929   -2.6328761636
H        1.8552641744   -0.3205956397   -3.2376443997
H        0.1308160232    2.9217837550   -2.3262739060
H       -0.4646240085    1.1294023172   -4.2702228991
H       -1.7019066284    1.6431547739   -3.1077182817
25   
torsion grid (-15,)
C       -3.4657318895   -1.5724006379    0.2475452016
C       -2.7451871618   -2.4892463708   -0.5290460777
C       -2.4412328923    0.2544753838   -1.0155827518
C       -1.7311239337   -0.6645465593   -1.7955056850
C       -3.2899915215   -0.2220917133   -0.0192165827
C       -1.8988573492   -2.0339919164   -1.5261786545
C        1.7464226636    0.2062523602   -1.2802631538
C        2.2689337407    0.6563598863   -2.6601372694
C        0.3363758342    1.7485263532   -2.2428432257
C       -0.6799008997    1.0085704874   -3.1699919172
O        0.5911719538    1.0331793747   -1.0519155828
O        1.5872356226    1.8984740474   -2.8912877603
O       -0.8847167170   -0.3573889917   -2.8166607401
F       -3.9660808715    0.6913537609    0.7269897319
F       -1.2004688384   -2.9269237948   -2.2714931756
H       -4.1357517911   -1.8938982068    1.0374055721
H       -2.8370933480   -3.5587325517   -0.3673310018
H       -2.3278495409    1.3243125305   -1.1363568673
H        1.4572552490   -0.8487167481   -1.2730036646
H        2.4583351477    0.4018381698   -0.4736822738
H        3.3416877225    0.8550838282   -2.6830825271
H        2.0153027912   -0.0718992142   -3.4403907016
H       -0.0240464350    2.7488758305   -1.9875085285
H       -0.2750889801    0.9871305433   -4.1830818200
H       -1.6371208852    1.5417032244   -3.1975992251
25   
torsion grid (0,)
C       -3.5630008129   -1.4784281220    0.2763967937
C       -2.8452992220   -2.4476680832   -0.4373351652
C       -2.4684759494    0.2610655377   -1.0487691044
C       -1.7583364610   -0.7099421367   -1.7630181331
C       -3.3513809219   -0.1471806348   -0.0511227098
C       -1.9643200126   -2.0607463947   -1.4329068722
C        1.9144908342    0.1385185003   -1.4544907463
C        2.3888812018    0.9008574637   -2.7150652200
C        0.3276945605    1.6378836788   -2.1357251945
C       -0.6058020994    0.8828114914   -3.1414197951
O        0.7187442603    0.8279175835   -1.0514169140
O        1.5209062026    2.0433219788   -2.7826407723
O       -0.8808506706   -0.4668006992   -2.7742187657
F       -4.0264046913    0.8166072840    0.6298242950
F       -1.2698321816   -3.0038075721   -2.1168654934
H       -4.2585806178   -1.7467587300    1.0639925478
H       -2.9651289782   -3.5056131020   -0.2256691327
H       -2.3403712968    1.3211519299   -1.2288302739
H        1.6875760571   -0.9097102712   -1.6717610176
H        2.6237750295    0.1996835913   -0.6256407824
H        3.4140816929    1.2692358942   -2.6470637602
H        2.2864867876    0.2854724505   -3.6175201561
H       -0.1537126192    2.5359790367   -1.7408193903
H       -0.1017792190    0.8122128588   -4.1061404979
H       -1.5388700984    1.4389365785   -3.2895255540
25   
torsion grid (15,)
C        0.0695633879   -1.7347393912   -6.3715141492
C       -0.4522814933   -0.4407608616   -6.4354940957
C       -0.2635641507   -1.7161592830   -3.9533862791
C       -0.7801498175   -0.4152909928   -4.0139299630
C        0.1423386070   -2.3456350613   -5.1217669342
C       -0.8806377683    0.1925563831   -5.2742259014
C        2.3359848642    0.6899934000   -3.4845425232
C        1.9334715286    2.1116737627   -3.8907345320
C        0.7177337685    1.5463774023   -2.0656401865
C       -0.7778962459    1.4711463672   -2.5090261496
O        1.4363524171    0.3714290550   -2.4085460504
O        1.3729156642    2.6404564606   -2.6812200039
O       -1.2270106011    0.1516279502   -2.8535933975
F        0.6484741488   -3.6033698924   -5.0389903639
F       -1.4187523949    1.4407538331   -5.3793158503
H        0.4026606468   -2.2606957097   -7.2598157819
H       -0.5537020531    0.0801092410   -7.3826409993
H       -0.1587896496   -2.2007182185   -2.9893723671
H        2.2018726819   -0.0381698180   -4.2896345295
H        3.3645990953    0.6438221290   -3.1110537871
H        2.7734456800    2.7464874042   -4.1774477458
H        1.1873993140    2.1075148315   -4.6954355762
H        0.7892449292    1.6960385324   -0.9841905552
H       -0.9381863352    2.1683289787   -3.3333063896
H       -1.4196528452    1.7693532717   -1.6782316033
25   
torsion grid (30,)
C       -0.0267140014   -1.8586557166   -6.3467447236
C       -0.4567550793   -0.5333823189   -6.4444358805
C       -0.4014696557   -1.7703052898   -3.9370590100
C       -0.8254399861   -0.4388235438   -4.0307048723
C       -0.0182811292   -2.4487206799   -5.0852913782
C       -0.8606295962    0.1506883741   -5.3036667584
C        2.3275041310    0.8917776770   -3.6352377698
C        1.9566940318    2.3796977668   -3.7137316711
C        0.7268757526    1.4495859165   -2.0592223643
C       -0.7384864579    1.4787150992   -2.5718711226
O        1.4639945034    0.3707888126   -2.6101720467
O        1.3941080990    2.6451936669   -2.4200878384
O       -1.2567602459    0.1771338827   -2.8879166217
F        0.3973497368   -3.7366735545   -4.9694388541
F       -1.3109432265    1.4310478839   -5.4449013704
H        0.2849841924   -2.4233771126   -7.2188273633
H       -0.5061543145   -0.0256344115   -7.4028288170
H       -0.3486342466   -2.2442039706   -2.9634185629
H        2.1394968263    0.3590108481   -4.5724630444
H        3.3662054682    0.7376347020   -3.3256854438
H        2.8121700763    3.0433598773   -3.8492340977
H        1.2202679466    2.5701785288   -4.5047406748
H        0.7595111145    1.3646727638   -0.9693336603
H       -0.8134374926    2.1475617779   -3.4300761168
H       -1.3907017497    1.8604531934   -1.7841965764
25   
torsion grid (45,)
C       -0.0957915500   -2.1470180729   -6.2884847627
C       -0.2200577874   -0.7597895816   -6.4006995734
C       -0.6633570394   -1.9639348797   -3.9228066853
C       -0.7829926461   -0.5724095809   -4.0306439006
C       -0.3299286841   -2.7160999279   -5.0408552065
C       -0.5708245319    0.0014711876   -5.2940059944
C        2.4319112893    1.3231749676   -3.8108972277
C        1.9640962592    2.7490662743   -3.4946986716
C        0.8265082252    1.3272120163   -2.1394338523
C       -0.6487467365    1.3849454196   -2.5811831059
O        1.5923066999    0.4902290424   -2.9951918059
O        1.3980607871    2.6210613714   -2.1806010399
O       -1.1817209823    0.0916784764   -2.9043487123
F       -0.2172484465   -4.0627817852   -4.9029569826
F       -0.6956998940    1.3527482730   -5.4632441914
H        0.1667717948   -2.7686691336   -7.1375188709
H       -0.0641912040   -0.2554964197   -7.3495526244
H       -0.8177138098   -2.4373508946   -2.9592980366
H        2.2925763918    1.0536330103   -4.8620192294
H        3.4761140786    1.1572679555   -3.5248684790
H        2.7749143945    3.4773727832   -3.4387702393
H        1.2100936530    3.0952938066   -4.2114559524
H        0.9144072137    0.9483269541   -1.1164087798
H       -0.7632616466    2.0789404683   -3.4135761020
H       -1.2579007437    1.7380154628   -1.7467942071
25   
torsion grid (60,)
C       -4.3218340434   -0.9760946001   -5.7511269649
C       -3.3630856554   -1.9149943475   -5.3440267407
C       -2.9901917403    0.7890685060   -4.7055477369
C       -2.0346955475   -0.1522112549   -4.3020942617
C       -4.1065764783    0.3523555401   -5.4187747381
C       -2.2476167110   -1.5032143990   -4.6354909377
C        2.8478460609    1.8185619808   -2.8571891470
C        2.2587816298    3.1989495649   -2.5595990576
C        0.6417262878    1.5433516972   -2.4808968071
C       -0.6726234602    1.4872819965   -3.2408458233
O        1.7011115726    1.0803705754   -3.2894979917
O        0.9171280052    2.9023799945   -2.1349477124
O       -0.9018297975    0.1303819518   -3.6084246239
F       -5.0185536783    1.2858598120   -5.7995819319
F       -1.3280307854   -2.4159680127   -4.2438456530
H       -5.2061714383   -1.2671721992   -6.3073924428
H       -3.4768687142   -2.9698005820   -5.5739065809
H       -2.8892913516    1.8443701768   -4.4838876979
H        3.5825193305    1.8098867552   -3.6640621675
H        3.2821878577    1.3621019812   -1.9568486941
H        2.7759219425    3.7289518948   -1.7550289334
H        2.2292340701    3.8302451578   -3.4554740484
H        0.5834650993    0.9463111267   -1.5571426024
H       -0.5911136774    2.1222186865   -4.1312878005
H       -1.4768829430    1.8626412173   -2.5967332935
25   
torsion grid (75,)
C       -4.3738697627   -1.0031493120   -5.6949623892
C       -3.4505587035   -1.9406237665   -5.2101399956
C       -2.9870389291    0.7892530332   -4.7746525607
C       -2.0670645131   -0.1507936289   -4.2934856350
C       -4.1140988829    0.3384850166   -5.4618923692
C       -2.3253727989   -1.5148474625   -4.5256730799
C        2.8559662954    2.0251048391   -2.8768156826
C        2.1973328351    3.3024136222   -2.3399390903
C        0.6682830104    1.5823765415   -2.6058189166
C       -0.6455301585    1.5194929154   -3.3612717443
O        1.7553233522    1.3310818639   -3.4695437463
O        0.8363625777    2.9071165261   -2.0947987436
O       -0.9311469556    0.1446482305   -3.6099866261
F       -4.9907750341    1.2712044881   -5.9191759110
F       -1.4399197512   -2.4262622353   -4.0585477337
H       -5.2645302084   -1.3049861666   -6.2351770504
H       -3.5995871678   -3.0052541529   -5.3609064802
H       -2.8514235063    1.8541086797   -4.6310307816
H        3.6053156153    2.2006082245   -3.6503108429
H        3.2958491965    1.4260398430   -2.0674401661
H        2.6462301792    3.6555000709   -1.4067433125
H        2.2064565052    4.1112409583   -3.0788641515
H        0.6698869215    0.8643116136   -1.7704017387
H       -0.5466201214    2.0783374686   -4.2988030234
H       -1.4296195252    1.9718892834   -2.7428267007
25   
torsion grid (90,)
C       -4.4241248418   -1.0177300752   -5.6459087930
C       -3.5478630715   -1.9597373563   -5.0879500840
C       -2.9595487867    0.7708086102   -4.8470626788
C       -2.0866908288   -0.1737645697   -4.2925680995
C       -4.1035026496    0.3239653768   -5.5084862118
C       -2.4070625124   -1.5377313442   -4.4276248267
C        2.8877401804    2.1498021131   -2.9021542397
C        2.1636759641    3.2739539069   -2.1440290205
C        0.7295043698    1.5506684028   -2.7251603355
C       -0.5866062554    1.4932487763   -3.4812887136
O        1.8248951562    1.5154983744   -3.6165879677
O        0.8105190010    2.8004408257   -2.0349693473
O       -0.9425038724    0.1173021010   -3.6211823843
F       -4.9339595681    1.2604900366   -6.0383233015
F       -1.5661642129   -2.4526518455   -3.8895521467
H       -5.3255272078   -1.3164481559   -6.1697675556
H       -3.7456814650   -3.0244463553   -5.1629953759
H       -2.7753811307    1.8358357976   -4.7787949528
H        3.6236177877    2.5028777755   -3.6263152647
H        3.3632630499    1.4386868121   -2.2126112986
H        2.5762314797    3.4445764090   -1.1447500732
H        2.1616130104    4.2156146398   -2.7030943171
H        0.7942860659    0.7226507905   -2.0019319680
H       -0.4655029342    1.9730755729   -4.4585203717
H       -1.3476139229    2.0248615094   -2.8991859060
25   
torsion grid (105,)
C       -4.4913426960   -1.0413040397   -5.5895000716
C       -3.6571199675   -1.9755974771   -4.9587782795
C       -2.9311669070    0.7325718563   -4.9561031150
C       -2.1007564089   -0.2041628071   -4.3279661866
C       -4.1029524876    0.2893065780   -5.5695063516
C       -2.4899366162   -1.5568371923   -4.3442437997
C        2.9181997576    2.2654051956   -2.9905120944
C        2.1431596941    3.1694079091   -2.0115420868
C        0.8031062941    1.5121692930   -2.9055977491
C       -0.5172459205    1.4509203154   -3.6613586123
O        1.8839923012    1.7009488212   -3.7984204387
O        0.8040537530    2.6489097617   -2.0408604094
O       -0.9360812433    0.0842872452   -3.6915504251
F       -4.8912630857    1.2180748233   -6.1722158434
F       -1.6892156874   -2.4639906760   -3.7357878483
H       -5.4121390319   -1.3376109484   -6.0799188571
H       -3.9084793728   -3.0314725161   -4.9412151798
H       -2.6934294523    1.7887939642   -4.9808750966
H        3.6056535233    2.8052076502   -3.6437799479
H        3.4639361311    1.4728720035   -2.4604766222
H        2.5423444884    3.1201969656   -0.9931105865
H        2.1136736058    4.2131584895   -2.3396822491
H        0.9480334607    0.5938945423   -2.3153091101
H       -0.3753328929    1.8400089630   -4.6751040000
H       -1.2557799604    2.0607891588   -3.1305325726
25   
torsion grid (120,)
C       -4.5312392712   -1.0338051730   -5.5428709669
C       -3.7415805855   -1.9539735923   -4.8382761119
C       -2.8984620488    0.7132054398   -5.0287767111
C       -2.1130324078   -0.2094188479   -4.3262747759
C       -4.0852255216    0.2766104141   -5.6177162865
C       -2.5603995682   -1.5417616740   -4.2465393934
C        2.9075423401    2.4057188705   -2.9924431920
C        2.0864615089    3.0687589697   -1.8681507434
C        0.8594768255    1.4805475817   -3.0117867071
C       -0.4602086535    1.4201460530   -3.7738528251
O        1.9042376730    1.8946761421   -3.8721672732
O        0.7907989280    2.4576174755   -1.9735968039
O       -0.9392159936    0.0741686295   -3.7046376562
F       -4.8290795925    1.1914606368   -6.2937262600
F       -1.8023640532   -2.4355039853   -3.5674867304
H       -5.4616666223   -1.3255994897   -6.0175758679
H       -4.0387298238   -2.9938832216   -4.7452933184
H       -2.6149203638    1.7534890677   -5.1292324680
H        3.5328277260    3.1011858874   -3.5546507026
H        3.5279537522    1.5852865301   -2.6068562025
H        2.5116024958    2.8820684198   -0.8764244845
H        1.9705912099    4.1471728253   -2.0154224225
H        1.0894034792    0.4948811392   -2.5779728811
H       -0.2904463901    1.7144757071   -4.8148982244
H       -1.1756424938    2.1048551587   -3.3072243657
25   
torsion grid (135,)
C       -5.6017605670   -0.8454635828   -3.3785414841
C       -4.6533468458   -1.8405541585   -3.1010728287
C       -3.9156800712    0.8559776384   -2.8841308943
C       -2.9720717720   -0.1412979040   -2.6072530846
C       -5.2040154879    0.4773852279   -3.2618388534
C       -3.3694695079   -1.4866135721   -2.7246140523
C        2.0790968914    2.6470155167   -1.5819912160
C        1.5161275833    2.5896311403   -0.1492737592
C        0.1965315516    1.4194313355   -1.6426349763
C       -1.2600060816    1.4381828994   -2.0918768107
O        0.9374835580    2.3634018422   -2.3940319988
O        0.3193176859    1.8050611921   -0.2755316994
O       -1.6853133098    0.0803795749   -2.2332519438
F       -6.1010529554    1.4640352035   -3.5248810251
F       -2.4578649197   -2.4523594205   -2.4589741972
H       -6.6157434502   -1.0901774860   -3.6754142810
H       -4.9057790092   -2.8937055509   -3.1753226108
H       -3.6778518761    1.9101890374   -2.8149926198
H        2.4678678682    3.6258696164   -1.8673888263
H        2.8539871970    1.8845378773   -1.7400510897
H        2.2070154569    2.1112350030    0.5525902561
H        1.2422082388    3.5794766558    0.2301048230
H        0.6163036157    0.4102997457   -1.7783698544
H       -1.3295950979    1.9584475948   -3.0534143982
H       -1.8652475554    1.9592730871   -1.3431674338
25   
torsion grid (150,)
C       -5.4886456053   -0.7551047262   -3.2189520274
C       -4.5645285308   -1.7759943038   -2.9535279611
C       -3.7222214552    0.8955619861   -2.8497056881
C       -2.8030234764   -0.1271978994   -2.5839407810
C       -5.0388495754    0.5547927972   -3.1594573827
C       -3.2531160190   -1.4596348641   -2.6440197866
C        2.0155909262    2.9608548871   -1.3673000454
C        1.2834151598    2.6237975754   -0.0727953230
C        0.4587304274    1.3338081638   -1.7972728429
C       -1.0147647427    1.4016691272   -2.1902362138
O        1.1118505110    2.4655123803   -2.3623637321
O        0.6624781323    1.3707292907   -0.3869099061
O       -1.4940056732    0.0588844424   -2.2737735242
F       -5.9105307743    1.5666281596   -3.4128251640
F       -2.3662968370   -2.4508347194   -2.3904259465
H       -6.5229345883   -0.9706090897   -3.4638794693
H       -4.8572564619   -2.8208255721   -2.9853361044
H       -3.4435561252    1.9417146356   -2.8239278395
H        2.1573423002    4.0298132691   -1.5387563618
H        2.9806653429    2.4410318121   -1.4312243283
H        1.9404383119    2.4739160357    0.7867600218
H        0.5269819471    3.3826794606    0.1690451738
H        0.8973155756    0.3985551495   -2.1689561209
H       -1.1002458738    1.8933881277   -3.1662161282
H       -1.5726606038    1.9718780428   -1.4386351861
25   
torsion grid (165,)
C       -5.4650866399   -0.7337578247   -3.1262222168
C       -4.5523549554   -1.7447005577   -2.7922758782
C       -3.6673812926    0.9120188598   -2.9212080897
C       -2.7596124681   -0.1006104427   -2.5861544309
C       -4.9940985607    0.5688542695   -3.1814085069
C       -3.2312076631   -1.4257995811   -2.5300174360
C        1.8680442993    3.0787002204   -1.2035942478
C        1.1269502801    2.4458029621   -0.0312348034
C        0.5326391841    1.3611858951   -1.9636507113
C       -0.9422094524    1.4236907529   -2.3428672146
O        1.1166011912    2.6089464933   -2.3313339471
O        0.7383243234    1.1765893868   -0.5692780435
O       -1.4435590036    0.0889787131   -2.3099076647
F       -5.8543698067    1.5709497461   -3.5035332006
F       -2.3558354043   -2.4075842085   -2.2101551383
H       -6.5065109363   -0.9513162651   -3.3367109135
H       -4.8614522729   -2.7836652888   -2.7338497517
H       -3.3722422256    1.9519769355   -2.9864050565
H        1.8470124680    4.1706307458   -1.2110870017
H        2.9053011679    2.7249764821   -1.2623949439
H        1.7476432178    2.2655417402    0.8487043550
H        0.2465126122    3.0376179322    0.2545600055
H        1.0209783290    0.5250548897   -2.4791481603
H       -1.0337965040    1.8443411107   -3.3516602666
H       -1.4794589717    2.0624281367   -1.6315161281
25   
torsion grid (180,)
C       -5.4510528898   -0.7283370770   -3.0467645507
C       -4.5464069087   -1.7119200032   -2.6213644784
C       -3.6396885398    0.9141977107   -2.9944497603
C       -2.7399890674   -0.0711448915   -2.5682203934
C       -4.9695749250    0.5597315111   -3.2216188981
C       -3.2223075901   -1.3817598251   -2.3899083875
C        1.7685878808    3.1011461297   -1.0904772278
C        1.0697246555    2.2506218725   -0.0359051242
C        0.5721573070    1.4127905871   -2.1127688877
C       -0.9076927400    1.4487099178   -2.4807606965
O        1.0759291538    2.7352322864   -2.2921117458
O        0.7869325566    1.0468130805   -0.7577527026
O       -1.4234626378    0.1324946625   -2.3057559842
F       -5.8221595942    1.5351111375   -3.6339350298
F       -2.3549892418   -2.3371492431   -1.9813743228
H       -6.4943860133   -0.9557504815   -3.2363137579
H       -4.8641773382   -2.7384801180   -2.4677438958
H       -3.3362561365    1.9415552283   -3.1539016112
H        1.6541097368    4.1777718039   -0.9463253890
H        2.8330967826    2.8475086331   -1.1727112038
H        1.6969396578    1.9924288854    0.8196238590
H        0.1437277545    2.7242036733    0.3172811368
H        1.1126860041    0.6896730660   -2.7354717949
H       -1.0148452756    1.7790243161   -3.5215283033
H       -1.4256365994    2.1578847891   -1.8234822621
