22   
torsion grid (-165,)
C       -1.2871461645   -0.2111703754   -1.0724371594
C        2.2370644576   -0.2614310782   -0.7843576661
C        1.0822598385   -2.5166056077   -0.6802444937
C        0.6643860348    0.1159762969    1.9623988297
C        1.4422282916   -1.2437043490    0.0910063589
N       -1.6279175505    0.8083452268   -1.9754591583
N       -0.4929736344    0.2650900423   -0.0296226325
N        0.2518985172   -0.6365976769    0.7758272891
O       -1.6646072288   -1.3638940392   -1.2135934296
H        2.5119585600    0.6537113920   -0.2470173384
H        3.1668668793   -0.7343063221   -1.1149357490
H        1.6778747585    0.0169273575   -1.6839553404
H        0.4515945729   -3.1643555066   -0.0671977783
H        2.0022372790   -3.0543088509   -0.9388433088
H        0.5371989760   -2.3011502019   -1.6000058308
H       -0.2259762847    0.5147672109    2.4543554309
H        1.1724269563   -0.5578266813    2.6560588448
H        1.3437851367    0.9588481405    1.7375477898
H        2.0875450275   -1.5468227941    0.9224590200
H       -2.4058072743    0.5242182534   -2.5606817235
H       -1.7586004739    1.7327735495   -1.5769877533
H        0.0343035469    1.1005801575   -0.2954326367
22   
torsion grid (-150,)
C       -1.4271052159   -0.3101196661   -0.9442719469
C        2.4783959706   -0.3047286898   -0.5466954006
C        1.0093260371   -2.3342106548   -0.8821649911
C        0.6834861075    0.2227421597    1.9053904806
C        1.4587651475   -1.2567090626    0.1066297921
N       -1.8056223216    0.5605822823   -1.9782651045
N       -0.4382697170    0.2476156412   -0.1321891383
N        0.2942013824   -0.5788926271    0.7454089696
O       -1.9237519634   -1.4156347622   -0.8004461407
H        2.8454768274    0.4606277409    0.1443541197
H        3.3451690271   -0.8757208232   -0.8936709774
H        2.0557642308    0.1944323801   -1.4267793465
H        0.2420526154   -2.9705779057   -0.4388605348
H        1.8714934020   -2.9466957842   -1.1684338327
H        0.5952748013   -1.8979840521   -1.7958831733
H       -0.2205516689    0.5827824388    2.4021539403
H        1.2380079913   -0.4093823175    2.6041549132
H        1.3111857436    1.0957063044    1.6556909350
H        1.9536460684   -1.7611184097    0.9442525011
H       -2.6830660639    0.2669651266   -2.3929629310
H       -1.7919942645    1.5509746277   -1.7565384655
H        0.1087160841    0.9784101973   -0.5919921038
22   
torsion grid (-135,)
C       -1.4930141666   -0.3039418825   -0.8873907943
C        2.5951290951   -0.3445733860   -0.4711324669
C        1.0399493581   -2.2893048696   -0.9380643548
C        0.6413183745    0.2501438362    1.8594621169
C        1.4987087300   -1.2637354635    0.1004701553
N       -1.9430252763    0.5219305846   -1.9298984584
N       -0.3719936938    0.2268310191   -0.2532397416
N        0.3345250014   -0.5479977944    0.6757679630
O       -2.0301969526   -1.3630065567   -0.6045103536
H        2.9548839451    0.3817613228    0.2644707046
H        3.4538332627   -0.9428377662   -0.7918687945
H        2.2428335265    0.2024707804   -1.3541772492
H        0.2345674838   -2.9075765012   -0.5377866592
H        1.8819468712   -2.9276799685   -1.2261780181
H        0.6695438658   -1.8001603929   -1.8449475561
H       -0.2958328574    0.6015569159    2.2972350037
H        1.1509127840   -0.3842527924    2.5906887609
H        1.2805269471    1.1272039944    1.6575882746
H        1.9229673332   -1.8103604492    0.9506236385
H       -2.8726254166    0.2497446242   -2.2292705512
H       -1.8616261025    1.5212150992   -1.7725954055
H        0.1672681088    0.9016337903   -0.7963646498
22   
torsion grid (-120,)
C       -1.5456872567   -0.2698448689   -0.8494502574
C        2.6618823036   -0.3629576451   -0.4515554491
C        1.1131214934   -2.3126767362   -0.9466139077
C        0.5777296365    0.2468360641    1.8053604714
C        1.5465357565   -1.2759325402    0.0917484900
N       -2.0441015635    0.5604067730   -1.8672298126
N       -0.3203254810    0.1692541419   -0.3707031022
N        0.3649712550   -0.5518939850    0.6037164580
O       -2.1267497090   -1.2767620759   -0.4738981786
H        2.9922421934    0.3698202323    0.2918839447
H        3.5332782277   -0.9603105931   -0.7384202231
H        2.3363215467    0.1774019327   -1.3488440871
H        0.3008461944   -2.9279519292   -0.5537864531
H        1.9589440371   -2.9545768529   -1.2143725082
H        0.7570039489   -1.8288805132   -1.8620631619
H       -0.3934045387    0.5691713499    2.1884660811
H        1.0585927678   -0.3779756126    2.5640301762
H        1.2049023746    1.1418318990    1.6463092222
H        1.9391227011   -1.8103968424    0.9647054219
H       -3.0153726182    0.3449317993   -2.0617886702
H       -1.8823887997    1.5554639411   -1.7518827360
H        0.1831357517    0.8741062054   -0.9067301539
22   
torsion grid (-105,)
C       -1.5850755709   -0.2250629107   -0.8443220522
C        2.6951454259   -0.3799920460   -0.4535027038
C        1.2235905356   -2.3957190067   -0.9212238391
C        0.4955775077    0.2334300508    1.7088294874
C        1.5920349190   -1.3069157753    0.0877320422
N       -2.1294174610    0.6818726726   -1.7660044352
N       -0.2690372358    0.0688710363   -0.5185093846
N        0.3682230144   -0.6026212656    0.5214078182
O       -2.1960863790   -1.2059880864   -0.4469453401
H        2.9694835890    0.3972948787    0.2679068612
H        3.5989226769   -0.9556910056   -0.6779647301
H        2.3801525380    0.1052234695   -1.3846565316
H        0.4363570408   -3.0363567149   -0.5167442550
H        2.1006147727   -3.0069312910   -1.1590044952
H        0.8541812939   -1.9531374751   -1.8514464780
H       -0.5037332811    0.5210180861    2.0465974873
H        0.9729298260   -0.3462137964    2.5041855663
H        1.0891078631    1.1519739391    1.5476457851
H        1.9663483309   -1.7928722887    0.9964588413
H       -3.1298881630    0.5498935590   -1.8578091918
H       -1.8661720348    1.6563305118   -1.6677409315
H        0.1373410131    0.9406576025   -0.8560079564
22   
torsion grid (-90,)
C       -1.3501153339   -2.1923459738   -0.2656342137
C        2.5713556919   -0.2882844415    0.5643205637
C        1.6889303216   -1.7231231351   -1.2951553697
C       -0.2044659707    0.4090882457    1.2546321931
C        1.3844504393   -1.1334761585    0.0855580273
N       -2.2261210058   -2.7455461845   -1.2032815240
N       -0.9601093249   -0.8962761326   -0.5623094511
N        0.1712115154   -0.2829352358    0.0155563346
O       -1.0299379035   -2.7815074032    0.7628788254
H        2.4643126569    0.0285293182    1.6047378990
H        3.4895003931   -0.8803749744    0.4992614311
H        2.6908856187    0.6033549746   -0.0613983656
H        0.9048645554   -2.4031321707   -1.6387585982
H        2.6188919246   -2.2981979770   -1.2543734809
H        1.8094714456   -0.9247202259   -2.0366156374
H       -1.1381336571    0.9442676136    1.0725594649
H       -0.3510208657   -0.2781166999    2.1012946182
H        0.5621731440    1.1421832156    1.5139583999
H        1.2304982635   -1.9574796170    0.7952591334
H       -2.3739505848   -3.7349493040   -1.0439779643
H       -2.0968326027   -2.5033392209   -2.1786722183
H       -1.1607353874   -0.5470046565   -1.4923783538
22   
torsion grid (-75,)
C       -1.3932171633   -2.1570756237   -0.2481099450
C        2.5862802412   -0.2626052950    0.5824671889
C        1.7852997051   -1.6923101136   -1.3192536020
C       -0.2305704654    0.3216631854    1.2281589241
C        1.4309209801   -1.1230285897    0.0571800551
N       -2.3445944065   -2.6918717059   -1.1240080263
N       -0.8738298150   -0.9485755102   -0.6623125399
N        0.2006412392   -0.2946591544   -0.0360908336
O       -1.1019700566   -2.6955934267    0.8172297327
H        2.4411887114    0.0411574857    1.6221934776
H        3.5177709055   -0.8355179935    0.5393510963
H        2.7067909068    0.6380712220   -0.0300191946
H        1.0155855100   -2.3722705225   -1.6933163452
H        2.7197384239   -2.2581883593   -1.2556280881
H        1.9206590688   -0.8841817728   -2.0474796442
H       -1.1880366711    0.8166819595    1.0539099787
H       -0.3521981909   -0.4094273769    2.0390969118
H        0.4932601145    1.0825463584    1.5277167950
H        1.2670094509   -1.9571382987    0.7536947820
H       -2.5648455790   -3.6526987429   -0.8897631353
H       -2.2029433356   -2.5422337173   -2.1165453685
H       -1.1378162405   -0.5661301516   -1.5610105060
22   
torsion grid (-60,)
C       -1.4341882589   -2.1552093014   -0.2189887635
C        2.5851459359   -0.2605690499    0.6394768405
C        1.9382199395   -1.6354832521   -1.3591311852
C       -0.2524089620    0.2500833822    1.1401974626
C        1.4914038384   -1.1360107735    0.0172384793
N       -2.4999849357   -2.6156420267   -1.0034774528
N       -0.7745537855   -1.0744686129   -0.7735178043
N        0.2364685583   -0.3516089529   -0.1117032158
O       -1.1398644160   -2.6615340097    0.8600463478
H        2.3775778232   -0.0091078831    1.6826317682
H        3.5378511787   -0.7985932231    0.6182784518
H        2.7040736827    0.6698611649    0.0727230304
H        1.1910431815   -2.2897567460   -1.8141091320
H        2.8692761443   -2.2030657080   -1.2634121299
H        2.1155811915   -0.7906402439   -2.0344759763
H       -1.2295448400    0.6981915304    0.9435311383
H       -0.3552526056   -0.4757545920    1.9569445222
H        0.4255299586    1.0508417759    1.4428131455
H        1.3199440101   -2.0020546549    0.6727928501
H       -2.8112440614   -3.5301017811   -0.6958672047
H       -2.3789378505   -2.5583868637   -2.0089746179
H       -1.2210123936   -0.5643763221   -1.5255548405
22   
torsion grid (-45,)
C       -1.4965098882   -2.1338177668   -0.1869238827
C        2.5816903414   -0.2365056202    0.6597174212
C        2.0375662390   -1.5928939458   -1.3810609407
C       -0.2582406116    0.1640918180    1.1073343587
C        1.5361751933   -1.1362018686   -0.0086853289
N       -2.6061972043   -2.5314704049   -0.9420203076
N       -0.7063486883   -1.1908566235   -0.8306053796
N        0.2533879735   -0.3976774573   -0.1560114773
O       -1.2655455308   -2.5811770367    0.9316227033
H        2.3400992627   -0.0143632351    1.7020652288
H        3.5537582449   -0.7389676519    0.6500750653
H        2.6805004750    0.7091882168    0.1147124127
H        1.3195313685   -2.2543501498   -1.8707576359
H        2.9806126407   -2.1378034792   -1.2705921524
H        2.2122062872   -0.7280787635   -2.0314014197
H       -1.2761638154    0.5237821873    0.9367426516
H       -0.2765433368   -0.5583298621    1.9311090920
H        0.3551823082    1.0251171773    1.3816618263
H        1.3763156974   -2.0207963854    0.6266773982
H       -3.0062363453   -3.3916076625   -0.5846059009
H       -2.4938988208   -2.5356130220   -1.9501869602
H       -1.1462184569   -0.6850546077   -1.5914050585
22   
torsion grid (-30,)
C       -1.5841288846   -2.1058221825   -0.1579121757
C        2.5872331197   -0.1911894482    0.6496725118
C        2.0953286811   -1.5667880168   -1.3900634431
C       -0.2495718452    0.0812460499    1.1168480645
C        1.5766939779   -1.1314289294   -0.0170226376
N       -2.6840665804   -2.4522519108   -0.9528294474
N       -0.6563653243   -1.3137159003   -0.8264084942
N        0.2605731858   -0.4486630777   -0.1607758251
O       -1.4740352683   -2.4767560147    1.0053844805
H        2.3449368999    0.0149197284    1.6949480385
H        3.5805786218   -0.6496618988    0.6284997731
H        2.6399240007    0.7607907020    0.1092054575
H        1.4062466847   -2.2603214725   -1.8767553878
H        3.0621413648   -2.0688763977   -1.2819173064
H        2.2309641874   -0.6951200456   -2.0407027598
H       -1.2917119819    0.3800966592    0.9821198807
H       -0.1992517366   -0.6351777375    1.9433027957
H        0.3216713403    0.9786339644    1.3646699841
H        1.4531649532   -2.0237986541    0.6175954620
H       -3.1810210234   -3.2466517225   -0.5658504503
H       -2.5200128711   -2.5370183688   -1.9504639235
H       -1.0241681682   -0.8558314695   -1.6540828839
22   
torsion grid (-15,)
C       -1.6866342697   -2.0632886022   -0.1377243052
C        2.5993599030   -0.1425023260    0.6204081349
C        2.1120703879   -1.5484196023   -1.3972850724
C       -0.2285365590    0.0140803453    1.1605349397
C        1.6069848072   -1.1229766930   -0.0154763528
N       -2.7206664253   -2.4052900275   -1.0215174035
N       -0.6260571619   -1.4240829986   -0.7719473948
N        0.2604713796   -0.4929600960   -0.1329224045
O       -1.7436651567   -2.3225322520    1.0589821962
H        2.3815760723    0.0564275870    1.6722423241
H        3.6086700427   -0.5619891252    0.5691580437
H        2.5988599756    0.8095823293    0.0776424319
H        1.4441937848   -2.2768128462   -1.8622669289
H        3.1013931059   -2.0084432075   -1.3079788324
H        2.1972085110   -0.6774746474   -2.0575508744
H       -1.2778770621    0.2970329572    1.0625875806
H       -0.1411012643   -0.7053347689    1.9815134474
H        0.3366051485    0.9186385193    1.3947148001
H        1.5320795147   -2.0169833015    0.6258116611
H       -3.3158879575   -3.1230034051   -0.6233289096
H       -2.4574277321   -2.6025254713   -1.9814674007
H       -0.8864957112   -1.0445285110   -1.6766679669
22   
torsion grid (0,)
C       -1.7885482516   -1.9984614359   -0.1403028714
C        2.6120797751   -0.0969783416    0.5802925475
C        2.0966510133   -1.5396704879   -1.4027186172
C       -0.2006561746   -0.0416352840    1.2281255603
C        1.6250360675   -1.1121800344   -0.0086585603
N       -2.7125232173   -2.3939256987   -1.1212878361
N       -0.6106544810   -1.5053329396   -0.6937632090
N        0.2565529468   -0.5216153199   -0.0854867379
O       -2.0338061373   -2.1092175024    1.0554385699
H        2.4401031668    0.0937599303    1.6419262529
H        3.6319347980   -0.4799975090    0.4786676400
H        2.5510713913    0.8545788860    0.0401985695
H        1.4579119974   -2.3183271435   -1.8256064084
H        3.1137897796   -1.9397390712   -1.3458531327
H        2.1053113140   -0.6802753090   -2.0834699043
H       -1.2465440154    0.2566486214    1.1665891493
H       -0.0996419480   -0.7812090451    2.0311357614
H        0.3848450704    0.8477692230    1.4672290076
H        1.5971572831   -2.0022373754    0.6426021624
H       -3.4036730953   -3.0241975709   -0.7298951772
H       -2.3317996335   -2.7306174599   -1.9997061870
H       -0.7494743157   -1.2205252759   -1.6579948658
22   
torsion grid (15,)
C       -1.8853558850   -1.8990082571   -0.1741818063
C        2.6226672223   -0.0665030907    0.5407776386
C        2.0621130394   -1.5251039444   -1.4155379010
C       -0.1708558614   -0.0920120757    1.3071022184
C        1.6307284280   -1.1011316947   -0.0058840207
N       -2.6622927953   -2.4281504033   -1.2209502767
N       -0.6106511356   -1.5496979048   -0.6110008070
N        0.2502729681   -0.5331075383   -0.0309608509
O       -2.3300126260   -1.8008645007    0.9634480274
H        2.5014528541    0.1133018656    1.6110943083
H        3.6446238258   -0.4248317734    0.3853638154
H        2.5123425134    0.8866489452    0.0117495225
H        1.4513936001   -2.3434150241   -1.8042728028
H        3.0989917567   -1.8739889809   -1.3973578482
H        2.0011153448   -0.6758261133   -2.1063723320
H       -1.2047052224    0.2429636412    1.2804378735
H       -0.0780398488   -0.8708643659    2.0763693240
H        0.4539140325    0.7611629807    1.5730535267
H        1.6427075343   -1.9908688627    0.6469144904
H       -3.4540602265   -2.9410930225   -0.8488397349
H       -2.1633128315   -2.9524360857   -1.9325997629
H       -0.6179133536   -1.3785599380   -1.6108908883
22   
torsion grid (30,)
C       -1.9661455976   -1.7569037095   -0.2574255807
C        2.6275582414   -0.0572279900    0.5204474774
C        2.0298570607   -1.4835937036   -1.4460602963
C       -0.1463604873   -0.1544918894    1.3788464149
C        1.6299528841   -1.0927199968   -0.0157342191
N       -2.5852872921   -2.5215178524   -1.2660169606
N       -0.6198599602   -1.5614269310   -0.5486860995
N        0.2459546265   -0.5363384850    0.0144102482
O       -2.5951376192   -1.3562758931    0.7150313411
H        2.5426738793    0.0956289314    1.5981798140
H        3.6479188442   -0.3976687433    0.3214432284
H        2.4854429487    0.9061463968    0.0186930905
H        1.4587505839   -2.3353557427   -1.8250236386
H        3.0837452209   -1.7755732535   -1.4687731694
H        1.8984905416   -0.6342727845   -2.1267129309
H       -1.1703526520    0.2043384238    1.3852586948
H       -0.0611206082   -0.9847815590    2.0983254939
H        0.5088441497    0.6584887328    1.6897106253
H        1.6708922431   -1.9957429783    0.6181539169
H       -3.4876829396   -2.8570097811   -0.9470604701
H       -2.0191165152   -3.2624338287   -1.6667822286
H       -0.4838942193   -1.5446535066   -1.5527630380
22   
torsion grid (45,)
C       -1.9419174917   -1.5049451327   -0.6192560195
C        2.6207958036   -0.1757269055    0.6079184816
C        2.0492170466   -1.0945904088   -1.6601329554
C       -0.1831761350   -0.3532991998    1.3426102228
C        1.6701751567   -1.0877883388   -0.1732875985
N       -2.6056109275   -2.7032631060   -0.8933867729
N       -0.5539482099   -1.6228253514   -0.6748551782
N        0.2732782339   -0.6668867145   -0.0121945784
O       -2.5463223522   -0.4502797953   -0.4635686986
H        2.5035217607   -0.2706914101    1.6901700818
H        3.6533835262   -0.4417979910    0.3637327361
H        2.4634303277    0.8710147241    0.3275132001
H        1.3732759616   -1.7160631632   -2.2508892503
H        3.0685391902   -1.4740283147   -1.7853808938
H        2.0012350262   -0.0760629462   -2.0582170317
H       -1.2195785726   -0.0251472116    1.2954984993
H       -0.0986920426   -1.2112086214    2.0378319307
H        0.4108391700    0.4730044118    1.7335857776
H        1.7932308094   -2.1197739486    0.2262482779
H       -3.6008949044   -2.6339436661   -0.7211877498
H       -2.1914419128   -3.5778848865   -0.5954743542
H       -0.2442161306   -2.5811981672   -0.4798164129
22   
torsion grid (60,)
C       -1.9025953835   -1.4829255579   -0.6856366420
C        2.6144680787   -0.0967806196    0.5607668326
C        2.0120442538   -1.1279133865   -1.6516374492
C       -0.1436540078   -0.4344387055    1.4158298634
C        1.6868476187   -1.0844437190   -0.1540505508
N       -2.6305112575   -2.6322747336   -0.9905261932
N       -0.5321694271   -1.7189500419   -0.5588866565
N        0.2754723035   -0.7214530697    0.0423338483
O       -2.4246962230   -0.3771855122   -0.6311567204
H        2.5392961581   -0.1579148500    1.6493425775
H        3.6513956756   -0.3164446216    0.2900120465
H        2.3909260267    0.9293926093    0.2505534488
H        1.3501086078   -1.8096696076   -2.1890638751
H        3.0460091958   -1.4553695942   -1.8015147893
H        1.8929961565   -0.1300507459   -2.0857707298
H       -1.2038550984   -0.1841119053    1.4075943572
H        0.0315183534   -1.2831173006    2.1051405452
H        0.3984272921    0.4357761165    1.7876315972
H        1.8732234928   -2.0925871655    0.2771740007
H       -3.6285926685   -2.5027104907   -0.8854223173
H       -2.2854359551   -3.5381328821   -0.6986852207
H       -0.3160998593   -2.6620803599   -0.2165662594
22   
torsion grid (75,)
C       -1.8474860572   -1.4731867765   -0.7740371192
C        2.6046481761   -0.0389893419    0.5177086047
C        1.9509223880   -1.1496844345   -1.6418068608
C       -0.0965079055   -0.4969531973    1.5037731576
C        1.6908482282   -1.0824792212   -0.1334786922
N       -2.6120348400   -2.5952702668   -1.0913607759
N       -0.5307144030   -1.7862053722   -0.4312471198
N        0.2728464548   -0.7653788538    0.1132139331
O       -2.2855536387   -0.3356369618   -0.8694968169
H        2.5792887315   -0.0763503489    1.6098569866
H        3.6381509936   -0.2193704075    0.2075965730
H        2.3220792724    0.9686031731    0.1947434313
H        1.2986467361   -1.8769956749   -2.1289779567
H        2.9915307117   -1.4327925817   -1.8310290621
H        1.7648527988   -0.1706965701   -2.0949663535
H       -1.1675810247   -0.2917890886    1.5377055674
H        0.1366865084   -1.3412812560    2.1810348191
H        0.4218587667    0.3930435523    1.8629462615
H        1.9334279303   -2.0705096764    0.3122220577
H       -3.6050012778   -2.4013715090   -1.1112947244
H       -2.3616366308   -3.4971747183   -0.7052974034
H       -0.4041485853   -2.7029166115    0.0096532064
22   
torsion grid (90,)
C       -1.7702754338   -1.4850837156   -0.8925957679
C        2.5934679587   -0.0003768719    0.4838851894
C        1.8710286792   -1.1487127567   -1.6339940178
C       -0.0460704332   -0.5512274082    1.6013524470
C        1.6825206760   -1.0769354700   -0.1158083445
N       -2.5716710176   -2.6025352180   -1.1499480872
N       -0.5472310207   -1.8149478655   -0.3177773203
N        0.2664094775   -0.7952394688    0.1934450603
O       -2.0973707532   -0.3545758162   -1.2222887850
H        2.6239092858   -0.0308359610    1.5762842556
H        3.6159452160   -0.1488193053    0.1242239506
H        2.2621742514    0.9951997219    0.1699776299
H        1.2264552216   -1.9078277219   -2.0814576245
H        2.9115116689   -1.3928252971   -1.8717417093
H        1.6224689530   -0.1834595597   -2.0862196673
H       -1.1191570697   -0.3666797573    1.6851064045
H        0.2258671257   -1.4010740325    2.2569121066
H        0.4733069120    0.3408142438    1.9540959721
H        1.9717184051   -2.0535641572    0.3245748847
H       -3.5234093078   -2.3394166959   -1.3743929311
H       -2.5028660665   -3.3998256556   -0.5282646697
H       -0.4736093949   -2.7254373748    0.1420927374
22   
torsion grid (105,)
C       -1.6934627636   -1.5020440475   -0.9751518610
C        2.5834293288    0.0122659947    0.4536709401
C        1.7619669372   -1.1486780174   -1.6212868829
C        0.0082696281   -0.5656548879    1.7092408652
C        1.6516976075   -1.0734463762   -0.0956818426
N       -2.4996348212   -2.6237593511   -1.2279456309
N       -0.5960837034   -1.8029060435   -0.1886877360
N        0.2504801266   -0.8005005916    0.2858665396
O       -1.9193146986   -0.4048099673   -1.4645931444
H        2.6646427125   -0.0110205751    1.5436550315
H        3.5891233922   -0.1320928771    0.0479758369
H        2.2310972929    1.0035313901    0.1492761548
H        1.1181716144   -1.9283274446   -2.0339150243
H        2.7947931203   -1.3672798829   -1.9111967173
H        1.4624902291   -0.1942765766   -2.0646357541
H       -1.0619449173   -0.4019591460    1.8503025759
H        0.3278451496   -1.4110100209    2.3482401366
H        0.5319783534    0.3339230547    2.0361961017
H        1.9689348760   -2.0467325315    0.3325063833
H       -3.3787320644   -2.3475982537   -1.6498240311
H       -2.6192358572   -3.2839468447   -0.4672940903
H       -0.4813882095   -2.7470631477    0.1807438632
22   
torsion grid (120,)
C       -1.6318623250   -1.4914000371   -1.0006700579
C        2.5700681759   -0.0003444155    0.4145406523
C        1.6273673920   -1.1772129081   -1.5989984171
C        0.0613540611   -0.5318720146    1.8167862853
C        1.5943687302   -1.0783278208   -0.0701850572
N       -2.3745213401   -2.6330207103   -1.3467632313
N       -0.6802698747   -1.7647752666   -0.0297620074
N        0.2210350425   -0.7797680815    0.3837709710
O       -1.8018415977   -0.4047144197   -1.5320326081
H        2.7022460976   -0.0076064039    1.4995612208
H        3.5526791070   -0.1685987467   -0.0360399656
H        2.2192509253    0.9914574837    0.1104818245
H        0.9901251401   -1.9824705306   -1.9724156921
H        2.6498305745   -1.3744544589   -1.9365506738
H        1.2782730971   -0.2403625377   -2.0421858476
H       -1.0000459900   -0.3782295234    2.0177105908
H        0.4252341564   -1.3654619872    2.4464091985
H        0.5958522417    0.3765829880    2.0996848218
H        1.9193225580   -2.0511635586    0.3554819289
H       -3.1871595651   -2.3784159222   -1.8968547629
H       -2.6032992552   -3.2633447823   -0.5851902662
H       -0.4328840181   -2.7398824896    0.1406828071
22   
torsion grid (135,)
C       -1.5643587018   -1.4776419137   -1.0469783273
C        2.5380614357    0.0262454058    0.3662665056
C        1.5393296122   -1.2146722240   -1.5767263134
C        0.1094167512   -0.5556784824    1.8965141759
C        1.5426065233   -1.0627121597   -0.0521052106
N       -2.2793471672   -2.6273326524   -1.4169916768
N       -0.7565217067   -1.7059685905    0.0648978727
N        0.1860658819   -0.7363496297    0.4457565366
O       -1.6456122153   -0.4226707030   -1.6554453938
H        2.7092553257    0.0518598818    1.4453450469
H        3.5042102698   -0.1567999446   -0.1131835453
H        2.1762773995    1.0086572847    0.0453337690
H        0.9136388541   -2.0460860680   -1.9105712584
H        2.5585386845   -1.4079339246   -1.9260467353
H        1.1654327435   -0.3020916150   -2.0477962652
H       -0.9367132830   -0.4036165101    2.1665345674
H        0.4996159381   -1.4233851421    2.4611175607
H        0.6715057084    0.3314495631    2.1925533766
H        1.8724792546   -2.0233242042    0.3967985629
H       -3.0200143829   -2.3982330875   -2.0702478013
H       -2.5984463881   -3.2176676924   -0.6557647184
H       -0.4902972041   -2.6794337351    0.2282009851
22   
torsion grid (150,)
C       -1.5133630442   -1.4680951366   -1.0881490771
C        2.5132716136    0.0426969287    0.3313562064
C        1.4759647743   -1.2251405978   -1.5672558125
C        0.1531293857   -0.5909382053    1.9494145746
C        1.4901090326   -1.0367400784   -0.0474943785
N       -2.1925526849   -2.6407207736   -1.4511548240
N       -0.8408279889   -1.6134589533    0.1278911497
N        0.1490833043   -0.6684202216    0.4852133546
O       -1.5264966582   -0.4589937657   -1.7738692088
H        2.7130804996    0.0838082843    1.4047551509
H        3.4644555535   -0.1616871374   -0.1687940747
H        2.1573076100    1.0249508264    0.0039083926
H        0.8450267058   -2.0599885712   -1.8813956951
H        2.4936830599   -1.4409465470   -1.9079282370
H        1.1151675805   -0.3224443162   -2.0650093050
H       -0.8713274532   -0.4290368968    2.2886638674
H        0.5441285213   -1.5108466242    2.4237973459
H        0.7605165788    0.2528245627    2.2788178532
H        1.8051666785   -1.9941022784    0.4173647546
H       -2.8731538379   -2.4543032575   -2.1792523105
H       -2.5767447320   -3.1888460583   -0.6881861894
H       -0.5905011656   -2.5829573266    0.3447681762
22   
torsion grid (165,)
C       -1.4524785889   -1.3871701334   -1.1172003333
C        2.4233973957    0.2002630504    0.1990273233
C        1.4565463846   -1.3610279148   -1.4950054111
C        0.2067130078   -0.7700064670    2.0287559882
C        1.4772170726   -0.9902730151   -0.0105768537
N       -2.1367048213   -2.5462880921   -1.5098486367
N       -0.9148435861   -1.5074877704    0.1682521041
N        0.1364088556   -0.6381519079    0.5693509822
O       -1.3691703496   -0.3999437284   -1.8299463899
H        2.5682129789    0.4539092506    1.2519646817
H        3.4081156226   -0.0291744690   -0.2201477964
H        2.0231402080    1.0799817774   -0.3137029655
H        0.8494737068   -2.2460164215   -1.7029832970
H        2.4813562662   -1.5963995019   -1.8003814545
H        1.0852396568   -0.5375738804   -2.1065633680
H       -0.7631365334   -0.5075657836    2.4568555981
H        0.4693352944   -1.7976357761    2.3443339094
H        0.9566767272   -0.0892422727    2.4311903369
H        1.8747371537   -1.8638079424    0.5423009311
H       -2.7474015674   -2.3570323334   -2.2969403869
H       -2.5996635616   -3.0667530294   -0.7715880718
H       -0.7380479893   -2.4859897829    0.4203148237
22   
torsion grid (180,)
C       -1.1056091578   -0.0651386667   -1.2156991780
C        2.0316258043   -0.3023566256   -0.9986057471
C        1.1841663156   -2.6484715912   -0.4621968754
C        0.6116262794    0.0178541269    1.9848319337
C        1.4350850388   -1.2327702510    0.0648164777
N       -1.5249954696    1.0760721158   -1.9163852483
N       -0.5555594727    0.2633411611    0.0205305533
N        0.2127665850   -0.6844488669    0.7639271551
O       -1.2282044566   -1.1929428342   -1.6717760942
H        2.2121275230    0.7074553945   -0.6113661335
H        2.9976704387   -0.7013138843   -1.3232696327
H        1.3942566252   -0.2283634355   -1.8833348604
H        0.7797931504   -3.2749896314    0.3385630868
H        2.1287767448   -3.0895918650   -0.8028736441
H        0.4692056372   -2.6457350310   -1.2840634753
H       -0.2812039466    0.3974008020    2.4890149954
H        1.1136496269   -0.6824175770    2.6551956237
H        1.2949284539    0.8681481759    1.7939191016
H        2.1804399142   -1.3211702053    0.8626763333
H       -2.1411251154    0.8215352736   -2.6805141008
H       -1.8973478303    1.8320599588   -1.3506916347
H       -0.1114724671    1.1849076006   -0.0138170719
