21   
torsion grid (-165,)
C       -1.6972854758   -1.1727826733    0.7254392809
C       -0.3825925173   -0.9198640621    0.2581609396
C       -2.2025721614   -2.4646070094    0.7986249365
C        0.4682660232   -1.9408821660   -0.1541828476
C       -1.3525394511   -3.5059159510    0.3912778355
C       -0.0514567932   -3.2412365007   -0.0814512738
C        1.8066387990   -4.8626916342   -0.6218057074
C        3.3141645181   -6.7713820922   -0.8949287386
N       -1.5702033166   -4.8765777419    0.3554777121
N       -0.5076183003   -5.4515595476   -0.0866107300
N        0.4449285302   -4.4912836196   -0.3829164488
N        1.9852470469   -6.1994843839   -0.7266658427
O        2.6674071542   -4.0006826890   -0.7344477758
H       -2.3173759404   -0.3350769712    1.0316044573
H       -0.0275257454    0.1065379583    0.2222884614
H       -3.2068110825   -2.6733945473    1.1543434237
H        1.4759695759   -1.7566466726   -0.5054508081
H        3.2228573199   -7.7405068916   -1.3902389953
H        3.8238505641   -6.9049904988    0.0663952396
H        3.9145068652   -6.1059480876   -1.5166305821
H        1.1899211223   -6.7931421948   -0.5200831825
21   
torsion grid (-150,)
C       -1.6445000433   -1.2018014631    0.8252187259
C       -0.3750880881   -0.9291498803    0.2574018897
C       -2.1455353672   -2.4966390094    0.8845786151
C        0.4312701220   -1.9327681091   -0.2730129259
C       -1.3359644350   -3.5178990454    0.3628683955
C       -0.0855643046   -3.2339836204   -0.2165980333
C        1.7775969879   -4.8488219725   -0.6948778842
C        3.3064539667   -6.7556027043   -0.7806831095
N       -1.5617115820   -4.8871029984    0.2844721161
N       -0.5445537044   -5.4429431904   -0.2648130303
N        0.3918345362   -4.4701602977   -0.6168404584
N        1.9657581678   -6.1871157791   -0.7500865377
O        2.6468050371   -3.9899572455   -0.7392794466
H       -2.2332431139   -0.3786500892    1.2199413417
H       -0.0185611400    0.0971883767    0.2380337279
H       -3.1165135541   -2.7216332497    1.3148804915
H        1.4080994052   -1.7327388503   -0.6956839402
H        3.2659401416   -7.7327405768   -1.2671456418
H        3.7217535318   -6.8723433111    0.2271147336
H        3.9617758523   -6.0969863265   -1.3519889521
H        1.1571002556   -6.7787664871   -0.5971828548
21   
torsion grid (-135,)
C       -1.5851131344   -1.2389419723    0.9135782566
C       -0.3760289205   -0.9307710055    0.2444119866
C       -2.0655035145   -2.5426916895    0.9697382912
C        0.3888965180   -1.9052099127   -0.3937220622
C       -1.2924472479   -3.5300578214    0.3414926809
C       -0.1098543891   -3.2118651205   -0.3456819877
C        1.7585606782   -4.8280079145   -0.7329445679
C        3.2753535335   -6.7409732889   -0.6657829695
N       -1.5169147538   -4.8994190947    0.2195693779
N       -0.5487728037   -5.4247452529   -0.4274988751
N        0.3685286976   -4.4263782278   -0.8252157453
N        1.9432528353   -6.1664605156   -0.8025068292
O        2.6360861337   -3.9815978106   -0.6533094694
H       -2.1447995480   -0.4383408592    1.3887185725
H       -0.0309514088    0.0995446554    0.2330249701
H       -2.9925435061   -2.7969083813    1.4743073677
H        1.3257135019   -1.6757526165   -0.8868448166
H        3.2784821625   -7.7328525484   -1.1229368692
H        3.5767060833   -6.8274846394    0.3847071631
H        3.9962827790   -6.1056878282   -1.1819215269
H        1.1210402886   -6.7533709008   -0.7224149675
21   
torsion grid (-120,)
C       -1.5295027234   -1.2748344974    0.9731506796
C       -0.4004970673   -0.9253595115    0.1966492024
C       -1.9703383998   -2.5930002589    1.0486787494
C        0.3207520919   -1.8739009045   -0.5286547266
C       -1.2359448864   -3.5467442502    0.3324107445
C       -0.1406658913   -3.1912369219   -0.4660633090
C        1.7319782111   -4.8039494516   -0.7320223395
C        3.2311586192   -6.7228184504   -0.5753349652
N       -1.4543391111   -4.9185569777    0.1825669563
N       -0.5486278056   -5.4108311056   -0.5603434781
N        0.3576838920   -4.3816141655   -1.0015985999
N        1.9330443896   -6.1347730821   -0.8827097602
O        2.5894367796   -3.9752162812   -0.4717364615
H       -2.0609979339   -0.4973984245    1.5144673636
H       -0.0810078842    0.1129049327    0.1711473295
H       -2.8401541153   -2.8797908022    1.6315731352
H        1.2038208872   -1.6103383154   -1.0988229409
H        3.3011555303   -7.6932536264   -1.0715406961
H        3.3751032424   -6.8579046963    0.5031591338
H        4.0203116824   -6.0705189149   -0.9511603839
H        1.1086753044   -6.7228358157   -0.9165302755
21   
torsion grid (-105,)
C       -1.4751540656   -1.2953871447    0.9936722727
C       -0.4476841099   -0.9205991584    0.1000602137
C       -1.8508800779   -2.6292646448    1.1389269381
C        0.2362129810   -1.8599836762   -0.6740359332
C       -1.1507416856   -3.5656305269    0.3713511118
C       -0.1631404837   -3.1908034224   -0.5466474634
C        1.7088477545   -4.8056909128   -0.6516456080
C        3.1967572397   -6.7349758928   -0.5371597199
N       -1.3472536861   -4.9475420348    0.2461788601
N       -0.5119672224   -5.4291588452   -0.5698320425
N        0.3719798975   -4.3629043724   -1.0953869234
N        1.9975225900   -6.0738265779   -1.0409168084
O        2.4639247645   -4.0443386719   -0.0732489788
H       -1.9829153724   -0.5273152018    1.5699471781
H       -0.1755030322    0.1283556432    0.0211414109
H       -2.6471438232   -2.9368816311    1.8096758936
H        1.0478077563   -1.5717400979   -1.3332484830
H        3.4242239884   -7.5859372440   -1.1830506366
H        3.0709652192   -7.0869768017    0.4939199732
H        4.0299929247   -6.0323391794   -0.5655733291
H        1.2051655536   -6.6486626547   -1.3026952930
21   
torsion grid (-90,)
C       -1.4173555579   -1.2706982781    0.9805688318
C       -0.5017278570   -0.9127756324   -0.0311499675
C       -1.7237342826   -2.6078515383    1.2316095196
C        0.1400736403   -1.8746652521   -0.8161546142
C       -1.0657642843   -3.5603878995    0.4501819022
C       -0.1881472944   -3.2093942551   -0.5817488942
C        1.6422034292   -4.8553974704   -0.4881503039
C        3.1680562929   -6.7619574182   -0.5398067706
N       -1.2483775633   -4.9518541464    0.3965403394
N       -0.4988441575   -5.4635618161   -0.4718045080
N        0.3730929847   -4.3792077771   -1.1143554162
N        2.1230457268   -5.9414500083   -1.1426739036
O        2.1608016122   -4.2873802634    0.4535254361
H       -1.8977850683   -0.4896229626    1.5627653836
H       -0.2842637203    0.1387684723   -0.1975861070
H       -2.4399936671   -2.9037970081    1.9917612505
H        0.8663601969   -1.5942951173   -1.5725113452
H        3.6226295293   -7.3813130295   -1.3161452986
H        2.7740135694   -7.4068016328    0.2549273431
H        3.9299351848   -6.1082408140   -0.1140032421
H        1.4826843975   -6.3794550191   -1.7935700190
21   
torsion grid (-75,)
C       -1.3632899991   -1.2667192263    1.0094024245
C       -0.5577038230   -0.8897175419   -0.0823276787
C       -1.5962372224   -2.6129644598    1.2972201381
C        0.0536987392   -1.8403846535   -0.9079054989
C       -0.9711860642   -3.5460574180    0.4719496848
C       -0.1987347083   -3.1848672143   -0.6405701936
C        1.5855133763   -4.8549738055   -0.4304183164
C        3.1215294016   -6.7595597181   -0.4817530688
N       -1.1669458691   -4.9406966863    0.4089977037
N       -0.5085122034   -5.4601294342   -0.5090788459
N        0.4162278925   -4.3151780942   -1.1978193764
N        2.1584293288   -5.8712025019   -1.1206492679
O        1.9624350428   -4.3965730977    0.6317525978
H       -1.8244476708   -0.4977042437    1.6222546305
H       -0.3986744618    0.1666134544   -0.2817240203
H       -2.2392317028   -2.9273181527    2.1133599174
H        0.7049812965   -1.5431344913   -1.7239587582
H        3.7145940240   -7.2563120498   -1.2530905201
H        2.6281206184   -7.5163849976    0.1400798276
H        3.7833112018   -6.1658055158    0.1496143853
H        1.6369388883   -6.2069363687   -1.9207309776
21   
torsion grid (75,)
C       -1.6094011803   -1.3255959417    0.0224769506
C       -0.3300413806   -0.9722755054    0.4930029117
C       -1.9821829700   -2.6652502117   -0.1032821368
C        0.6212064998   -1.9405265014    0.8347077301
C       -1.0194707128   -3.6160279797    0.2308572659
C        0.2434747275   -3.2786372996    0.7368128945
C        1.5915966914   -4.9565600983   -0.4399152880
C        2.8727269458   -6.8719673825   -1.2638570356
N       -1.1685002097   -5.0102331177    0.3767512599
N       -0.1206503267   -5.5491667234    0.7741267535
N        1.0470342665   -4.4221790039    0.8507141460
N        2.4350344159   -5.9879902734   -0.1906024223
O        1.3268628087   -4.4829817862   -1.5289607193
H       -2.3206083840   -0.5433897756   -0.2264750369
H       -0.0719936236    0.0795075134    0.5826950214
H       -2.9730532665   -2.9616835178   -0.4329066426
H        1.6186959463   -1.6612266727    1.1594844730
H        2.1097705452   -7.6194034685   -1.5131774061
H        3.7894536587   -7.3802117986   -0.9559581480
H        3.0781895873   -6.2727151467   -2.1514142572
H        2.4364336211   -6.3334667493    0.7609556040
21   
torsion grid (90,)
C       -1.6386543104   -1.3292683650    0.0764235028
C       -0.3118768774   -0.9945607296    0.4194207183
C       -2.0523056990   -2.6599666125    0.0216409437
C        0.6421548122   -1.9736541581    0.7102286367
C       -1.0867274622   -3.6298375608    0.3006547142
C        0.2193786034   -3.3020451788    0.6813714795
C        1.6705372235   -4.9581293670   -0.4232756804
C        2.9438223194   -6.8761378190   -1.2406069362
N       -1.2301134016   -5.0207440758    0.4321019311
N       -0.1337503607   -5.5522618964    0.7371486680
N        0.9638863417   -4.4843178290    0.8036076420
N        2.4153808591   -6.0589138272   -0.1536741454
O        1.5941909847   -4.3765154545   -1.4883504462
H       -2.3488528885   -0.5353235484   -0.1359767902
H       -0.0232164887    0.0525769270    0.4495760565
H       -3.0732183680   -2.9383817703   -0.2205607819
H        1.6691233706   -1.7108467583    0.9435740804
H        2.1705041694   -7.5138613156   -1.6856030610
H        3.7499712111   -7.5025689315   -0.8523508933
H        3.3436319085   -6.2198037332   -2.0141636699
H        2.2329546536   -6.5034235251    0.7377886831
21   
torsion grid (105,)
C       -1.7020555625   -1.3476879517    0.0991856371
C       -0.3467864899   -0.9927815328    0.2775535587
C       -2.1129468618   -2.6770407154    0.1752216172
C        0.6379375433   -1.9484980396    0.5354861639
C       -1.1185922085   -3.6299324850    0.4183941379
C        0.2167439492   -3.2746075255    0.6395411999
C        1.8117780661   -4.9009664717   -0.3241575639
C        2.9633533894   -6.8337388690   -1.2671591767
N       -1.2318165454   -5.0123424056    0.6197187516
N       -0.0915470274   -5.5110721671    0.8342524889
N        0.9506113795   -4.4580025761    0.7895908068
N        2.2389405035   -6.1811643235   -0.1821228112
O        2.1408002038   -4.1306168269   -1.2093174261
H       -2.4335618288   -0.5680749129   -0.0930676465
H       -0.0619299653    0.0530142350    0.2013931082
H       -3.1514706396   -2.9694140563    0.0547888889
H        1.6826747182   -1.6757175411    0.6373987242
H        2.2931856158   -7.1631796444   -2.0704032399
H        3.4932867540   -7.6991855186   -0.8630614386
H        3.6879499205   -6.1338371767   -1.6842073709
H        1.7158034764   -6.7576048766    0.4663033029
21   
torsion grid (120,)
C       -1.7267973695   -1.3310356558    0.1463641824
C       -0.3517031754   -1.0025450555    0.1757522121
C       -2.1558513866   -2.6449697920    0.3109354643
C        0.6355865519   -1.9683198097    0.3720885900
C       -1.1625023882   -3.6156861740    0.4923289595
C        0.1967174611   -3.2815906104    0.5589701056
C        1.8820728363   -4.9108229341   -0.2686069354
C        3.0208742194   -6.8369046637   -1.2418030285
N       -1.2829455914   -4.9888018649    0.7205927662
N       -0.1256682757   -5.4999361739    0.8362564143
N        0.8899109974   -4.4841843507    0.7181898993
N        2.1160020946   -6.2447921458   -0.2641605247
O        2.4643106171   -4.0837038962   -0.9515787975
H       -2.4569508804   -0.5408268134   -0.0031868543
H       -0.0555476139    0.0331316890    0.0330341928
H       -3.2070344579   -2.9160603167    0.3005695382
H        1.6904489547   -1.7201954948    0.3640096721
H        2.5392256142   -6.9714932450   -2.2175514910
H        3.3527822967   -7.8080090119   -0.8679473081
H        3.8872691031   -6.1870017557   -1.3696693556
H        1.4398912336   -6.8280866187    0.2146255240
21   
torsion grid (135,)
C       -1.7361396694   -1.3095792835    0.2286876513
C       -0.3536653318   -1.0209053918    0.1288765152
C       -2.1879222996   -2.6097704415    0.4267145184
C        0.6201032132   -2.0127734034    0.2286120507
C       -1.2128529096   -3.6141973950    0.5132559937
C        0.1576592217   -3.3160081555    0.4434011074
C        1.9080640551   -4.9494811643   -0.2788975837
C        3.1107218746   -6.8732428823   -1.1875451201
N       -1.3549050703   -4.9847004087    0.7182497489
N       -0.1983703908   -5.5270787173    0.7238364015
N        0.8024656118   -4.5418228770    0.5655196439
N        2.0794110953   -6.2902366579   -0.3394459312
O        2.6118931034   -4.1063654868   -0.8145182592
H       -2.4526101418   -0.4968936826    0.1500379820
H       -0.0428229717    0.0072115689   -0.0358512407
H       -3.2435960816   -2.8490096843    0.5098643295
H        1.6773046699   -1.7982091524    0.1300849635
H        2.7711405250   -6.9856538531   -2.2238904113
H        3.3815782667   -7.8541229322   -0.7903796603
H        3.9892623041   -6.2271879077   -1.1784376472
H        1.3397029104   -6.8700371186    0.0395039118
21   
torsion grid (150,)
C       -1.7534395269   -1.2710810336    0.3631242904
C       -0.3772355067   -1.0121336723    0.1456296499
C       -2.2210166932   -2.5643201566    0.5633408732
C        0.5755638264   -2.0272978364    0.1263376999
C       -1.2705679984   -3.5970417324    0.5347855635
C        0.0963888802   -3.3267928732    0.3382549304
C        1.8941643587   -4.9603102330   -0.3125502367
C        3.1870674275   -6.8815436277   -1.1042889417
N       -1.4328568190   -4.9679373887    0.6984984116
N       -0.2885042332   -5.5369365654    0.5875608055
N        0.6985385103   -4.5713296953    0.3865814057
N        2.0664761262   -6.3006827015   -0.3773967990
O        2.6543447580   -4.1066316115   -0.7469418016
H       -2.4516635273   -0.4389735009    0.3726782746
H       -0.0557532714    0.0135042738   -0.0141953198
H       -3.2715642613   -2.7795105821    0.7325778862
H        1.6264281184   -1.8369997299   -0.0538391743
H        2.9491345063   -7.0342576360   -2.1635492580
H        3.4455114663   -7.8421783299   -0.6526712854
H        4.0430632908   -6.2097483168   -1.0335266531
H        1.2949958010   -6.8829368987   -0.0718101543
21   
torsion grid (165,)
C       -1.7033191497   -1.2602679948    0.5033497897
C       -0.3431971784   -1.0291321769    0.1758075664
C       -2.1902322508   -2.5476978930    0.6901429874
C        0.5722579458   -2.0668547551    0.0281359709
C       -1.2784834771   -3.6054109197    0.5384830049
C        0.0733248341   -3.3628246923    0.2229830453
C        1.8882322465   -5.0051757927   -0.3915737244
C        3.2579306329   -6.9403626084   -1.0279526608
N       -1.4692015165   -4.9751401521    0.6582875047
N       -0.3520216636   -5.5692688212    0.4254967049
N        0.6270538030   -4.6245540474    0.1696721325
N        2.0577838943   -6.3455739369   -0.4579410396
O        2.6884004929   -4.1461072438   -0.7357074468
H       -2.3722491666   -0.4108496699    0.6086402395
H       -0.0050570108   -0.0061739283    0.0340531362
H       -3.2284189601   -2.7413988973    0.9415921135
H        1.6105377119   -1.8977424087   -0.2286950016
H        3.0873390116   -7.2799499042   -2.0560136432
H        3.5726850279   -7.7910507283   -0.4174094930
H        4.0490926261   -6.1905170378   -1.0333663976
H        1.2738015907   -6.9273829595   -0.1843908131
21   
torsion grid (180,)
C       -1.6762671974   -1.2508557973    0.6122056043
C       -0.3420126143   -1.0261984353    0.1870013584
C       -2.1737460491   -2.5362330027    0.7830823922
C        0.5386235996   -2.0694465121   -0.0812761423
C       -1.2957537624   -3.5999619127    0.5160463255
C        0.0286114944   -3.3642313970    0.0937205310
C        1.8622712231   -5.0080112802   -0.4701181117
C        3.3019055299   -6.9428187604   -0.9293879945
N       -1.5007878644   -4.9702113236    0.5959915243
N       -0.4135084341   -5.5719237122    0.2581790880
N        0.5468212210   -4.6308942434   -0.0571183608
N        2.0507356268   -6.3475528990   -0.4831560343
O        2.6830551302   -4.1471420926   -0.7572977627
H       -2.3177562464   -0.3960505588    0.8066680388
H        0.0040054020   -0.0031352115    0.0666327778
H       -3.1925120219   -2.7238558254    1.1080124303
H        1.5584137695   -1.9062223034   -0.4069107327
H        3.2206736654   -7.3235659936   -1.9539780930
H        3.5781321099   -7.7643117555   -0.2627812269
H        4.0799215600   -6.1799288842   -0.8992307152
H        1.2537463524   -6.9314555939   -0.2552359503
