22
-1 1 C6H7N2O5S2
C                     1.791336482253    -0.860481785214     0.055197046067
C                     2.806200284031    -1.407507968572     0.809485728854
C                     2.667044521480    -1.687965000340     2.222283670330
C                     1.372254484428    -1.307992415780     2.775147572630
C                     0.339715380632    -0.785861744723     2.015951607314
C                     0.545675627864    -0.551491714043     0.649552558682
S                    -0.741919228989     0.125681608991    -0.326097333205
O                    -0.237458589345     0.313061243124    -1.702227035265
O                    -2.035247673294    -0.547792262622    -0.128954691750
N                    -0.982569344301     1.656876389557     0.417308809661
S                     1.108458586554    -1.435799671417     4.531408146736
O                     1.939999066855    -0.448910553001     5.252240759277
O                    -0.335223174123    -1.429985887159     4.825447241881
N                     1.697267919828    -3.007072741095     4.809321259607
O                     3.586270189474    -2.234105245794     2.903356770109
H                     1.927202704634    -0.667896121558    -1.005240899413
H                     3.761660038582    -1.660661064968     0.357029820835
H                    -0.612413970686    -0.554832499734     2.485168393839
H                    -0.225804509051     2.280720831415     0.135153955147
H                    -1.872570666367     2.021238246402     0.072547062854
H                     2.623609507859    -3.013289414423     4.341777985427
H                     1.826976260469    -3.092166389235     5.819821164475
