22
-1 1 C6H7N2O5S2
C                     2.365921161680    -0.696350922111     0.002091070207
C                     3.128231223754    -1.472288286921     0.843382804804
C                     2.729404483811    -1.777568180249     2.203453248545
C                     1.480931507639    -1.148191386450     2.608973783863
C                     0.702238674760    -0.376540071291     1.760259989629
C                     1.139599596464    -0.148311697777     0.450904699110
S                     0.139750965202     0.760196988678    -0.659577709811
O                    -0.928540684473     1.446450775685     0.090544019948
O                     0.947110015514     1.519664691784    -1.628895557156
N                    -0.561983869352    -0.488098750170    -1.624955758738
S                     0.932551143925    -1.311001544946     4.293910149564
O                     1.825970675599    -0.575270292004     5.212349073924
O                    -0.507436383020    -1.009601182043     4.381887120280
N                     1.130680330454    -2.988247113656     4.509321856327
O                     3.405361223146    -2.546081612135     2.950878460575
H                     2.693259124397    -0.494765303503    -1.014586936261
H                     4.069627908720    -1.900232267324     0.508309811173
H                    -0.233054564927     0.047617148743     2.113482750858
H                    -1.278267806884    -0.953694863886    -1.064868725098
H                    -1.013789407995    -0.024714528402    -2.416588196818
H                     2.095807909223    -3.170967411242     4.175295707513
H                     1.085602687269    -3.155308073309     5.516997235498
