22
-1 1 C6H7N2O5S2
C                     1.681738198560    -1.059709585967     0.049110682627
C                     2.665266994062    -1.663240200608     0.801799757959
C                     2.789759383108    -1.465314646761     2.229861477403
C                     1.762613716944    -0.600022820622     2.797965524617
C                     0.790822236020     0.031950105990     2.042064121363
C                     0.739675126025    -0.200199555324     0.660812142658
S                    -0.493400010424     0.575372439081    -0.311999972936
O                    -0.619814318181     2.017292727578    -0.047441329615
O                    -0.345130022395     0.116487562422    -1.708698761424
N                    -1.936284565634    -0.072398512227     0.361531441406
S                     1.682141346927    -0.394771628518     4.564806404373
O                     0.898910914717     0.808152191699     4.896825262316
O                     1.272009984737    -1.657949301643     5.213814508498
N                     3.316957582137    -0.070123018471     4.903586384908
O                     3.723466705153    -1.984969223565     2.911950999602
H                     1.620228131872    -1.225289166936    -1.022744800933
H                     3.401402617770    -2.314091942260     0.336826750408
H                     0.074698226425     0.690921749142     2.524775582940
H                    -2.709898810739     0.502716566809     0.023159996261
H                    -2.051919718822    -1.030276204457     0.028978934705
H                     3.430589688455    -0.183845148416     5.913201325559
H                     3.829263321555    -0.826971003336     4.412214890652
