
  -OEChem-12122420523D

 22 22  0     0  0  0  0  0  0999 V2000
    1.8680   -1.0735   -0.1301 C   0  0  0  0  0  0  0  0  0  0  0  0
    2.8653   -1.6677    0.6008 C   0  0  0  0  0  0  0  0  0  0  0  0
    2.8629   -1.7125    2.0596 C   0  0  0  0  0  0  0  0  0  0  0  0
    1.7088   -1.0430    2.6624 C   0  0  0  0  0  0  0  0  0  0  0  0
    0.6986   -0.4446    1.9260 C   0  0  0  0  0  0  0  0  0  0  0  0
    0.7704   -0.4566    0.5259 C   0  0  0  0  0  0  0  0  0  0  0  0
   -0.5225    0.2386   -0.4114 S   0  0  0  0  0  0  0  0  0  0  0  0
   -1.4336    0.9842    0.4813 O   0  0  0  0  0  0  0  0  0  0  0  0
   -0.0388    0.8858   -1.6434 O   0  0  0  0  0  0  0  0  0  0  0  0
   -1.3452   -1.1602   -1.0087 N   0  0  0  0  0  0  0  0  0  0  0  0
    1.6647   -1.0419    4.4415 S   0  0  0  0  0  0  0  0  0  0  0  0
    1.3883   -2.3880    4.9696 O   0  0  0  0  0  0  0  0  0  0  0  0
    2.7709   -0.2427    4.9914 O   0  0  0  0  0  0  0  0  0  0  0  0
    0.2225   -0.1452    4.7577 N   0  0  0  0  0  0  0  0  0  0  0  0
    3.7609   -2.2729    2.7271 O   0  5  0  0  0  0  0  0  0  0  0  0
    1.9062   -1.0629   -1.2166 H   0  0  0  0  0  0  0  0  0  0  0  0
    3.7126   -2.1398    0.1094 H   0  0  0  0  0  0  0  0  0  0  0  0
   -0.1361    0.0338    2.4243 H   0  0  0  0  0  0  0  0  0  0  0  0
   -1.8524   -1.5821   -0.2289 H   0  0  0  0  0  0  0  0  0  0  0  0
   -2.0220   -0.8283   -1.6997 H   0  0  0  0  0  0  0  0  0  0  0  0
   -0.3285   -0.7030    5.4084 H   0  0  0  0  0  0  0  0  0  0  0  0
    0.4960    0.7326    5.1967 H   0  0  0  0  0  0  0  0  0  0  0  0
  1  2  1  0  0  0  0
  1  6  2  0  0  0  0
  1 16  1  0  0  0  0
  2  3  2  0  0  0  0
  2 17  1  0  0  0  0
  3  4  1  0  0  0  0
  3 15  1  0  0  0  0
  4  5  2  0  0  0  0
  4 11  1  0  0  0  0
  5  6  1  0  0  0  0
  5 18  1  0  0  0  0
  6  7  1  0  0  0  0
  7  8  2  0  0  0  0
  7  9  2  0  0  0  0
  7 10  1  0  0  0  0
 10 19  1  0  0  0  0
 10 20  1  0  0  0  0
 11 12  2  0  0  0  0
 11 13  2  0  0  0  0
 11 14  1  0  0  0  0
 14 21  1  0  0  0  0
 14 22  1  0  0  0  0
M  CHG  1  15  -1
M  END
$$$$
