
  -OEChem-12102412483D

 22 22  0     0  0  0  0  0  0999 V2000
    1.6817   -1.0597    0.0491 C   0  0  0  0  0  0  0  0  0  0  0  0
    2.6653   -1.6632    0.8018 C   0  0  0  0  0  0  0  0  0  0  0  0
    2.7898   -1.4653    2.2299 C   0  0  0  0  0  0  0  0  0  0  0  0
    1.7626   -0.6000    2.7980 C   0  0  0  0  0  0  0  0  0  0  0  0
    0.7908    0.0320    2.0421 C   0  0  0  0  0  0  0  0  0  0  0  0
    0.7397   -0.2002    0.6608 C   0  0  0  0  0  0  0  0  0  0  0  0
   -0.4934    0.5754   -0.3120 S   0  0  0  0  0  0  0  0  0  0  0  0
   -0.6198    2.0173   -0.0474 O   0  0  0  0  0  0  0  0  0  0  0  0
   -0.3451    0.1165   -1.7087 O   0  0  0  0  0  0  0  0  0  0  0  0
   -1.9363   -0.0724    0.3615 N   0  0  0  0  0  0  0  0  0  0  0  0
    1.6821   -0.3948    4.5648 S   0  0  0  0  0  0  0  0  0  0  0  0
    0.8989    0.8082    4.8968 O   0  0  0  0  0  0  0  0  0  0  0  0
    1.2720   -1.6579    5.2138 O   0  0  0  0  0  0  0  0  0  0  0  0
    3.3170   -0.0701    4.9036 N   0  0  0  0  0  0  0  0  0  0  0  0
    3.7235   -1.9850    2.9120 O   0  5  0  0  0  0  0  0  0  0  0  0
    1.6202   -1.2253   -1.0227 H   0  0  0  0  0  0  0  0  0  0  0  0
    3.4014   -2.3141    0.3368 H   0  0  0  0  0  0  0  0  0  0  0  0
    0.0747    0.6909    2.5248 H   0  0  0  0  0  0  0  0  0  0  0  0
   -2.7099    0.5027    0.0232 H   0  0  0  0  0  0  0  0  0  0  0  0
   -2.0519   -1.0303    0.0290 H   0  0  0  0  0  0  0  0  0  0  0  0
    3.4306   -0.1838    5.9132 H   0  0  0  0  0  0  0  0  0  0  0  0
    3.8293   -0.8270    4.4122 H   0  0  0  0  0  0  0  0  0  0  0  0
  1  2  1  0  0  0  0
  1  6  2  0  0  0  0
  1 16  1  0  0  0  0
  2  3  2  0  0  0  0
  2 17  1  0  0  0  0
  3  4  1  0  0  0  0
  3 15  1  0  0  0  0
  4  5  2  0  0  0  0
  4 11  1  0  0  0  0
  5  6  1  0  0  0  0
  5 18  1  0  0  0  0
  6  7  1  0  0  0  0
  7  8  2  0  0  0  0
  7  9  2  0  0  0  0
  7 10  1  0  0  0  0
 10 19  1  0  0  0  0
 10 20  1  0  0  0  0
 11 12  2  0  0  0  0
 11 13  2  0  0  0  0
 11 14  1  0  0  0  0
 14 21  1  0  0  0  0
 14 22  1  0  0  0  0
M  CHG  1  15  -1
M  END
$$$$
