
  -OEChem-12122420523D

 22 22  0     0  0  0  0  0  0999 V2000
    1.7913   -0.8605    0.0552 C   0  0  0  0  0  0  0  0  0  0  0  0
    2.8062   -1.4075    0.8095 C   0  0  0  0  0  0  0  0  0  0  0  0
    2.6670   -1.6880    2.2223 C   0  0  0  0  0  0  0  0  0  0  0  0
    1.3723   -1.3080    2.7751 C   0  0  0  0  0  0  0  0  0  0  0  0
    0.3397   -0.7859    2.0160 C   0  0  0  0  0  0  0  0  0  0  0  0
    0.5457   -0.5515    0.6496 C   0  0  0  0  0  0  0  0  0  0  0  0
   -0.7419    0.1257   -0.3261 S   0  0  0  0  0  0  0  0  0  0  0  0
   -0.2375    0.3131   -1.7022 O   0  0  0  0  0  0  0  0  0  0  0  0
   -2.0352   -0.5478   -0.1290 O   0  0  0  0  0  0  0  0  0  0  0  0
   -0.9826    1.6569    0.4173 N   0  0  0  0  0  0  0  0  0  0  0  0
    1.1085   -1.4358    4.5314 S   0  0  0  0  0  0  0  0  0  0  0  0
    1.9400   -0.4489    5.2522 O   0  0  0  0  0  0  0  0  0  0  0  0
   -0.3352   -1.4300    4.8254 O   0  0  0  0  0  0  0  0  0  0  0  0
    1.6973   -3.0071    4.8093 N   0  0  0  0  0  0  0  0  0  0  0  0
    3.5863   -2.2341    2.9034 O   0  5  0  0  0  0  0  0  0  0  0  0
    1.9272   -0.6679   -1.0052 H   0  0  0  0  0  0  0  0  0  0  0  0
    3.7617   -1.6607    0.3570 H   0  0  0  0  0  0  0  0  0  0  0  0
   -0.6124   -0.5548    2.4852 H   0  0  0  0  0  0  0  0  0  0  0  0
   -0.2258    2.2807    0.1352 H   0  0  0  0  0  0  0  0  0  0  0  0
   -1.8726    2.0212    0.0725 H   0  0  0  0  0  0  0  0  0  0  0  0
    2.6236   -3.0133    4.3418 H   0  0  0  0  0  0  0  0  0  0  0  0
    1.8270   -3.0922    5.8198 H   0  0  0  0  0  0  0  0  0  0  0  0
  1  2  1  0  0  0  0
  1  6  2  0  0  0  0
  1 16  1  0  0  0  0
  2  3  2  0  0  0  0
  2 17  1  0  0  0  0
  3  4  1  0  0  0  0
  3 15  1  0  0  0  0
  4  5  2  0  0  0  0
  4 11  1  0  0  0  0
  5  6  1  0  0  0  0
  5 18  1  0  0  0  0
  6  7  1  0  0  0  0
  7  8  2  0  0  0  0
  7  9  2  0  0  0  0
  7 10  1  0  0  0  0
 10 19  1  0  0  0  0
 10 20  1  0  0  0  0
 11 12  2  0  0  0  0
 11 13  2  0  0  0  0
 11 14  1  0  0  0  0
 14 21  1  0  0  0  0
 14 22  1  0  0  0  0
M  CHG  1  15  -1
M  END
$$$$
