9    
torsion grid (-165,)
C        1.1057477392   -0.3367884699   -0.0222276654
C        2.0539922740    0.7360271692   -0.5592851240
O        1.3609272563    1.7863816857   -1.2485266300
H        0.7596785541   -0.9965171754   -0.8278172745
H        1.5939913995   -0.9625234029    0.7327754493
H        0.2209638024    0.1344280881    0.4175797062
H        2.8013783802    0.2870941524   -1.2293950376
H        2.5817859194    1.2339023309    0.2578800884
H        0.8830988937    1.3902435680   -1.9940071532
9    
torsion grid (-150,)
C        1.1095571642   -0.3465202187   -0.0238100905
C        2.0622380297    0.7226572265   -0.5766886406
O        1.3637802200    1.8227088228   -1.1814697383
H        0.8830276082   -1.1082427992   -0.7795322300
H        1.5279398916   -0.8590729677    0.8483765606
H        0.1591857498    0.1197481090    0.2548582378
H        2.7460883894    0.2845570863   -1.3169664522
H        2.6562016075    1.1728641210    0.2216881402
H        0.8498959818    1.4763374722   -1.9276909032
9    
torsion grid (-135,)
C        1.1103561001   -0.3576763697   -0.0304770724
C        2.0640408624    0.7093729734   -0.6039523744
O        1.3749314603    1.8646068253   -1.1070824617
H        1.0219331388   -1.2241926753   -0.6952058729
H        1.4375815811   -0.7225820939    0.9479268803
H        0.1087133354    0.0695465593    0.0801948272
H        2.6837922035    0.2832820921   -1.4047447646
H        2.7298913545    1.0989208981    0.1688307823
H        0.8212379137    1.5818925351   -1.8514820875
9    
torsion grid (-120,)
C        0.9823381419   -0.2699630245   -0.0236554279
C        1.6417614857    1.0070570625   -0.5897791090
O        2.2264400673    0.8216703467   -1.8851009062
H        1.3824052417   -0.5399755693    0.9590293886
H       -0.1019396501   -0.1607248617    0.0754101074
H        1.1565523022   -1.1107953331   -0.7029456505
H        2.3928148958    1.3970368381    0.1113912473
H        0.8993726963    1.7953111913   -0.7333274605
H        2.9466020485    0.1779188030   -1.7991301838
9    
torsion grid (-105,)
C        0.9946094598   -0.2683865897   -0.0158742051
C        1.6699421302    1.0029458213   -0.5657071022
O        2.1506146722    0.8636570394   -1.9054950414
H        1.2221258096   -0.4298530509    1.0424133552
H       -0.0934740266   -0.2226245351   -0.1261781201
H        1.3182103732   -1.1475685983   -0.5843080940
H        2.4696923322    1.3389206706    0.1105102783
H        0.9497269613    1.8238389442   -0.6135077697
H        2.8315767932    0.1731997540   -1.9098661774
9    
torsion grid (-90,)
C        1.0036295764   -0.2659976562   -0.0138019683
C        1.6915385136    0.9985593814   -0.5445897194
O        2.0816098051    0.9020775221   -1.9159785446
H        1.0667188085   -0.3323614210    1.0771332647
H       -0.0528366458   -0.2865728917   -0.3003579792
H        1.4544887294   -1.1647711493   -0.4518836613
H        2.5394618498    1.2762491922    0.0995730903
H        0.9984339876    1.8439043069   -0.5087402177
H        2.7179466183    0.1746556740   -1.9966727828
9    
torsion grid (-75,)
C        1.0115279538   -0.2666961066   -0.0178691185
C        1.7097571219    0.9930403859   -0.5301711010
O        2.0239359239    0.9351830919   -1.9240948054
H        0.9248899283   -0.2536699968    1.0740719692
H        0.0076818539   -0.3536042294   -0.4459512778
H        1.5644197863   -1.1677631649   -0.3121532016
H        2.6048493037    1.2085789048    0.0728555944
H        1.0483990850    1.8578608213   -0.4243398287
H        2.6185553586    0.1822443028   -2.0664531855
9    
torsion grid (-60,)
C        1.0148696973   -0.2672972731   -0.0191342542
C        1.7226187423    0.9921110025   -0.5129713758
O        1.9683517106    0.9757398472   -1.9240002308
H        0.7874215743   -0.1892321937    1.0503469916
H        0.0778045284   -0.4201951911   -0.5635503294
H        1.6429883037   -1.1558407176   -0.1604022118
H        2.6617320280    1.1442999871    0.0397634657
H        1.0964352257    1.8723727073   -0.3438218912
H        2.5208275728    0.2035978256   -2.1226588751
9    
torsion grid (-45,)
C        1.0184918518   -0.2725209031   -0.0169324748
C        1.7382026989    0.9878113160   -0.4976014819
O        1.9115822092    1.0167140333   -1.9218483846
H        0.6490884123   -0.1363810801    1.0066032031
H        0.1634325133   -0.4937878287   -0.6627180858
H        1.6913906721   -1.1381256056    0.0039595738
H        2.7172914705    1.0800515765   -0.0055546303
H        1.1529236494    1.8811147889   -0.2662019874
H        2.4326416353    0.2387534332   -2.1752718431
9    
torsion grid (-30,)
C        1.0201922939   -0.2802478693   -0.0049364084
C        1.7580989259    0.9777281194   -0.4821580006
O        1.8444811471    1.0590722401   -1.9145905710
H        0.5045026036   -0.0888934369    0.9437788189
H        0.2670187565   -0.5781275476   -0.7399508859
H        1.7064928764   -1.1133368601    0.1836200788
H        2.7722137201    1.0121062492   -0.0604766895
H        1.2258186675    1.8831726109   -0.1830320148
H        2.3579679150    0.2975614840   -2.2264822215
9    
torsion grid (-15,)
C        1.0262615808   -0.2865200480    0.0090148936
C        1.7854534083    0.9654333590   -0.4731383232
O        1.7773787038    1.1101743330   -1.9022443005
H        0.3526028779   -0.0460505778    0.8389681284
H        0.4111568231   -0.6862235078   -0.8024700142
H        1.7018098856   -1.0678678268    0.3726834332
H        2.8253982683    0.9462054245   -0.1193744411
H        1.3166155072    1.8781821629   -0.1000878051
H        2.2538533942    0.3555494213   -2.2819113171
9    
torsion grid (0,)
C        1.0322254292   -0.2857815654    0.0187771601
C        1.8172765118    0.9497546214   -0.4735413023
O        1.7099244689    1.1688820677   -1.8862557243
H        0.2046318749   -0.0093456929    0.6790496693
H        0.5956514202   -0.8129395313   -0.8359143579
H        1.6712215325   -0.9919404117    0.5587994399
H        2.8744173398    0.8766703854   -0.1819980184
H        1.4242235025    1.8636993129   -0.0226757092
H        2.1163924909    0.4133832992   -2.3384747146
9    
torsion grid (15,)
C        1.0372215870   -0.2811175879    0.0274011876
C        1.8518955601    0.9318980550   -0.4601691688
O        1.6598498529    1.2357683262   -1.8446345026
H        0.0918760702    0.0097371147    0.4933201366
H        0.7915047056   -0.9289321014   -0.8226168489
H        1.6113228210   -0.8962917102    0.7282394798
H        2.9180670670    0.7992995283   -0.2253701499
H        1.5372095311    1.8361637566    0.0674544149
H        1.9577801417    0.4726291913   -2.3636073565
9    
torsion grid (30,)
C        1.0425091363   -0.2783726558    0.0253676231
C        1.8758694415    0.9166575767   -0.4529324323
O        1.6148901633    1.2907656714   -1.8072751207
H        0.0280792752    0.0110437432    0.3121625310
H        0.9594159156   -1.0225850957   -0.7775896257
H        1.5333266669   -0.7900729532    0.8605625327
H        2.9466379162    0.7287881890   -0.2827542801
H        1.6298139291    1.8054506129    0.1353909737
H        1.8206940017    0.5308564966   -2.3736726722
9    
torsion grid (45,)
C        1.0505396386   -0.2833280193    0.0207207857
C        1.8939903160    0.9021893690   -0.4473287631
O        1.5718848469    1.3360393800   -1.7711331586
H        0.0015724077   -0.0031713431    0.1525371937
H        1.0931354883   -1.0983007394   -0.7139388150
H        1.4409806768   -0.6883767457    0.9613229644
H        2.9652676793    0.6679694764   -0.3533202041
H        1.7079271689    1.7723180234    0.1889835386
H        1.7207556045    0.5919064702   -2.3751510611
9    
torsion grid (60,)
C        1.0630456466   -0.2930084380    0.0136303138
C        1.9126015950    0.8891859450   -0.4462340013
O        1.5335375281    1.3776587179   -1.7387169851
H        0.0006644984   -0.0300650974   -0.0005996213
H        1.2095736256   -1.1638787078   -0.6374752586
H        1.3333327868   -0.5909509031    1.0333248742
H        2.9795699317    0.6211518086   -0.4340377631
H        1.7799457637    1.7391574986    0.2286124822
H        1.6325467589    0.6512127784   -2.3738561644
9    
torsion grid (75,)
C        1.0749296544   -0.3051118903    0.0150882658
C        1.9312773065    0.8757715303   -0.4431867714
O        1.4952986696    1.4192939469   -1.6975833049
H        0.0165843979   -0.0705288339   -0.1410602608
H        1.3104366277   -1.2219785766   -0.5374187914
H        1.2110550202   -0.4973553404    1.0854398705
H        2.9877998279    0.5798186498   -0.5174420607
H        1.8575446009    1.7044444155    0.2652606923
H        1.5547289587    0.7173894155   -2.3644579613
9    
torsion grid (90,)
C        1.0854750714   -0.3165957554    0.0167887291
C        1.9501899148    0.8623375836   -0.4485384517
O        1.4581022584    1.4658203556   -1.6558431347
H        0.0483461539   -0.1349733153   -0.2858770554
H        1.4081355152   -1.2710525344   -0.4121008329
H        1.0769118411   -0.4007550248    1.1090213882
H        2.9894672759    0.5419124532   -0.6073148035
H        1.9443115762    1.6671546839    0.2896238788
H        1.4763865587    0.7936299924   -2.3549170973
9    
torsion grid (105,)
C        1.0910927637   -0.3251535299    0.0193982871
C        1.9678821770    0.8466727052   -0.4627384406
O        1.4213055876    1.5208358728   -1.6072668893
H        0.0979546494   -0.2341806753   -0.4334331517
H        1.5031881726   -1.3024747279   -0.2505424166
H        0.9341374536   -0.2967424182    1.1026462686
H        2.9822378632    0.4986405319   -0.7017727134
H        2.0460697345    1.6204613992    0.3035617874
H        1.3971679788    0.8893089735   -2.3429756420
9    
torsion grid (120,)
C        1.0884451049   -0.3268133630    0.0176703595
C        1.9847846051    0.8268467053   -0.4833665303
O        1.3959001654    1.5848833283   -1.5486009173
H        0.1739638330   -0.3729536840   -0.5824894971
H        1.5883429513   -1.2983680058   -0.0515245086
H        0.7794039892   -0.1831879263    1.0576192306
H        2.9680615921    0.4456652258   -0.7926315832
H        2.1584472622    1.5566430985    0.3104474677
H        1.2921530470    0.9970002189   -2.3128794819
9    
torsion grid (135,)
C        1.0796835549   -0.3239757243    0.0008618445
C        1.9934065317    0.8046777415   -0.5150740085
O        1.3747504552    1.6450201220   -1.4940825304
H        0.2794408582   -0.5369240901   -0.7156668167
H        1.6462510146   -1.2499619809    0.1504393024
H        0.6216259778   -0.0730227879    0.9620351364
H        2.9423777327    0.3930417219   -0.8882269595
H        2.2575797119    1.4806683220    0.3022863750
H        1.1646437657    1.0996275296   -2.2679141407
9    
torsion grid (150,)
C        1.0818461434   -0.3216571450   -0.0123273736
C        2.0105592130    0.7827789280   -0.5326818457
O        1.3742552406    1.6927964525   -1.4327965067
H        0.4047714164   -0.6776986164   -0.7971247846
H        1.6712205112   -1.1813802016    0.3283174170
H        0.4896315386    0.0161988447    0.8430887573
H        2.9186730649    0.3451785269   -0.9738425563
H        2.3515784230    1.4044912993    0.3000877707
H        1.0595660577    1.1872184179   -2.1982189831
9    
torsion grid (165,)
C        1.0889861410   -0.3236223821   -0.0205069399
C        2.0242059419    0.7664561923   -0.5433210964
O        1.3663300922    1.7285871309   -1.3722268408
H        0.5263855947   -0.7925964035   -0.8368662789
H        1.6680298531   -1.1112551828    0.4764770293
H        0.3818203498    0.0788430652    0.7110201751
H        2.8851604891    0.3159750676   -1.0601075753
H        2.4302737313    1.3431172522    0.2927538614
H        0.9871415787    1.2603031354   -2.1322393322
9    
torsion grid (180,)
C        1.0987995366   -0.3298621699   -0.0210937709
C        2.0412311338    0.7491796571   -0.5487795752
O        1.3638728525    1.7559713160   -1.3098784516
H        0.6434130820   -0.8946618549   -0.8442911537
H        1.6410268131   -1.0432100050    0.6103181223
H        0.2949294783    0.1185254980    0.5710308208
H        2.8477868300    0.2947155690   -1.1433574325
H        2.5083571467    1.2865449645    0.2810379203
H        0.9290305760    1.3218491968   -2.0604428278
