60
-1 1 C26H28NO5
C                    -5.191633797000    -6.685370006693     2.510249980722
C                    -4.578037808470    -6.204844766677     1.189053159465
C                    -4.327514458223    -4.688619631511     1.168537975028
H                    -3.627156452811    -4.426980866327     1.973655372466
C                    -3.730440424690    -4.235926085882    -0.174899862762
H                    -4.543121822968    -4.320188978719    -0.911586180025
C                    -2.502192231086    -5.040049937232    -0.682283571482
C                    -1.747738355049    -4.079881801990    -1.630929042299
C                    -2.069116517640    -2.720204812089    -1.046936338207
C                    -3.198774160216    -2.809618647101    -0.214484201991
C                    -3.670968928537    -1.666111119270     0.427170603785
C                    -3.013046543250    -0.438831473423     0.234103108403
C                    -1.889452514784    -0.364751987452    -0.598033463567
C                    -1.409607902497    -1.511826635359    -1.248522073233
O                    -1.163933731120     0.795733524420    -0.825863763524
C                    -1.537576721228     1.962908963383    -0.107330595300
C                    -0.487327977104     3.031978604102    -0.365470382558
C                     0.878685931062     2.768311280415     0.203216442228
C                     1.425191800927     1.677920274946     0.829733620590
O                     2.740100848606     2.004415512371     1.131042081287
C                     2.918059440314     3.276018829713     0.670279959057
N                     1.846118949726     3.770337941575     0.114557547299
C                     4.218607803852     3.914228146795     0.849553836597
C                     4.413004481260     5.227731906181     0.375448839089
C                     5.649417127793     5.837856656253     0.546795282173
C                     6.709528607977     5.173227299078     1.182925747750
C                     6.509839528741     3.868113326861     1.651559021149
C                     5.267876226026     3.240550510205     1.484697640681
O                     7.468160861977     3.118666594384     2.288278593255
C                     8.745947429814     3.708299941243     2.486890706907
C                     1.001859113072     0.297927150615     1.207345159314
C                    -5.680443740174    -3.931115429862     1.426185034801
O                    -5.706244087295    -3.147534026159     2.418545178811
O                    -6.597188477235    -4.187211053180     0.596597594123
H                    -5.351044457593    -7.772024333125     2.503545675887
H                    -4.539773909260    -6.443380543861     3.359035118627
H                    -6.154792773044    -6.197350066885     2.684219809244
H                    -3.640528237039    -6.751050090345     1.010191383970
H                    -5.260917296993    -6.446171921896     0.365656414806
H                    -1.856643342511    -5.282086041744     0.172369533136
H                    -2.780727889194    -5.981106329501    -1.165724731390
H                    -0.671512661494    -4.281134340586    -1.692520327106
H                    -2.149305492094    -4.151818109674    -2.652336734132
H                    -4.525908868370    -1.730935502205     1.095927305074
H                    -3.391825393982     0.442314406696     0.741238775889
H                    -0.530461846558    -1.430355427480    -1.884479831244
H                    -1.615912532966     1.750689041884     0.967383852809
H                    -2.521175717378     2.317431574345    -0.445631596375
H                    -0.849325216167     3.980934527313     0.048375099846
H                    -0.393948683871     3.184607324271    -1.447314308224
H                     3.591503508666     5.738701070967    -0.115181722403
H                     5.804791759093     6.850615264084     0.183039179773
H                     7.662391028484     5.676295938069     1.301988170060
H                     5.136102284477     2.229613875386     1.855556767069
H                     9.345512723819     2.956575709428     3.002915493178
H                     8.680810573027     4.609676483088     3.109951162143
H                     9.225491554114     3.961087571982     1.532399320192
H                     1.099521354978    -0.394059366576     0.365085257967
H                     1.626009302938    -0.063098270376     2.029492955796
H                    -0.039764016059     0.262686123303     1.525263116792
