60
-1 1 C26H28NO5
C                    -3.574707132952    -7.502400897678    -1.359169006238
C                    -3.205248484636    -6.462572335471    -0.293727515603
C                    -2.901929679716    -5.079802681817    -0.892549442630
H                    -3.792942555770    -4.710307118098    -1.418473695150
C                    -2.514941343074    -4.070008720516     0.201063019070
H                    -1.518684285166    -4.374581924138     0.554435648576
C                    -3.479586857279    -3.976630072879     1.414868368480
C                    -3.265277961115    -2.562130461538     2.001831164335
C                    -2.859978320240    -1.758607268656     0.783679206235
C                    -2.437680041537    -2.614591126957    -0.239604895069
C                    -2.011961526477    -2.074072029380    -1.459233797348
C                    -2.013884090785    -0.687196013489    -1.628657242199
C                    -2.433329871484     0.161754534629    -0.594248481233
C                    -2.861848723550    -0.367769625787     0.629573827642
O                    -2.390030618276     1.519187659696    -0.877674943293
C                    -2.924069237102     2.423899510248     0.076191220548
C                    -2.899652164502     3.814927349990    -0.560736286452
C                    -3.866140998728     3.953479972231    -1.698832564545
C                    -3.770505547873     3.496516881990    -2.984880308322
O                    -4.949060376532     3.830715865372    -3.626355114469
C                    -5.705620891169     4.471640904024    -2.684295989595
N                    -5.106272173520     4.568135733377    -1.527842696941
C                    -7.030417678531     4.955047826167    -3.059285550492
C                    -7.821360043069     5.616769836120    -2.097807648735
C                    -9.085541364276     6.071492638765    -2.452165013529
C                    -9.590988511951     5.886279154502    -3.748438138507
C                    -8.799450833634     5.228307968493    -4.698948207560
C                    -7.522770812387     4.764081799324    -4.354959874414
O                    -9.183278548258     4.988664506988    -5.994746888127
C                   -10.484397677044     5.403785962649    -6.388186582897
C                    -2.750578165786     2.749712950463    -3.765643938629
C                    -1.732434724744    -5.207674370071    -1.934676755932
O                    -1.992616014179    -4.848257843596    -3.118582846799
O                    -0.648801492175    -5.653655932503    -1.463608658810
H                    -3.796011307333    -8.477373273399    -0.904325223099
H                    -4.456727102696    -7.185960921565    -1.929856676515
H                    -2.752553917695    -7.631945553224    -2.068664171668
H                    -4.024032910143    -6.392422657052     0.437061968331
H                    -2.312303423832    -6.800663676535     0.245904490465
H                    -4.513363251478    -4.063142778502     1.055143416360
H                    -3.315925728911    -4.769902621638     2.150447022589
H                    -4.151696293080    -2.161923182922     2.509257492988
H                    -2.447117906506    -2.568046795048     2.737386074263
H                    -1.713744963554    -2.731133009419    -2.272338161679
H                    -1.697304988691    -0.242062251158    -2.568707081204
H                    -3.195602446644     0.272021444311     1.441295287877
H                    -2.316398477552     2.416995515101     0.993031701642
H                    -3.952996558266     2.145519096857     0.340652950355
H                    -1.876621576124     4.021307060122    -0.893156287179
H                    -3.158470087063     4.557617870639     0.200078860585
H                    -7.429388989687     5.755148867069    -1.095894877094
H                    -9.701074204898     6.579866358670    -1.714069470895
H                   -10.581989353169     6.250686689924    -3.994118141417
H                    -6.930402524243     4.251903977913    -5.105674065686
H                   -10.590150212985     5.106233570043    -7.432731595748
H                   -10.601437906853     6.492402351175    -6.308255301869
H                   -11.261523647954     4.910303866256    -5.790565586507
H                    -3.108076504248     1.744741021243    -4.014859697281
H                    -2.509376430858     3.269676423880    -4.699733014406
H                    -1.846838149181     2.633339790862    -3.167464406277
