
  -OEChem-12102412483D

 60 63  0     1  0  0  0  0  0999 V2000
   -5.4302   -7.2073   -1.9112 C   0  0  0  0  0  0  0  0  0  0  0  0
   -5.3307   -6.0824   -0.8732 C   0  0  0  0  0  0  0  0  0  0  0  0
   -4.1845   -5.1023   -1.1689 C   0  0  1  0  0  0  0  0  0  0  0  0
   -4.3507   -4.6378   -2.1506 H   0  0  0  0  0  0  0  0  0  0  0  0
   -4.0993   -3.9983   -0.1021 C   0  0  2  0  0  0  0  0  0  0  0  0
   -3.7108   -4.4858    0.8044 H   0  0  0  0  0  0  0  0  0  0  0  0
   -5.4262   -3.2706    0.2451 C   0  0  0  0  0  0  0  0  0  0  0  0
   -4.9997   -1.8983    0.8166 C   0  0  0  0  0  0  0  0  0  0  0  0
   -3.6952   -1.6336    0.0937 C   0  0  0  0  0  0  0  0  0  0  0  0
   -3.1885   -2.8250   -0.4369 C   0  0  0  0  0  0  0  0  0  0  0  0
   -1.9884   -2.8042   -1.1588 C   0  0  0  0  0  0  0  0  0  0  0  0
   -1.3118   -1.5925   -1.3231 C   0  0  0  0  0  0  0  0  0  0  0  0
   -1.8200   -0.4068   -0.7729 C   0  0  0  0  0  0  0  0  0  0  0  0
   -3.0243   -0.4149   -0.0566 C   0  0  0  0  0  0  0  0  0  0  0  0
   -1.0567    0.7314   -0.9888 O   0  0  0  0  0  0  0  0  0  0  0  0
   -1.4497    1.9254   -0.3303 C   0  0  0  0  0  0  0  0  0  0  0  0
   -0.3654    2.9688   -0.5507 C   0  0  0  0  0  0  0  0  0  0  0  0
    0.9524    2.7107    0.1241 C   0  0  0  0  0  0  0  0  0  0  0  0
    1.4552    1.6216    0.7886 C   0  0  0  0  0  0  0  0  0  0  0  0
    2.7420    1.9541    1.1874 O   0  0  0  0  0  0  0  0  0  0  0  0
    2.9490    3.2264    0.7416 C   0  0  0  0  0  0  0  0  0  0  0  0
    1.9190    3.7173    0.1086 N   0  0  0  0  0  0  0  0  0  0  0  0
    4.2316    3.8677    1.0139 C   0  0  0  0  0  0  0  0  0  0  0  0
    4.4545    5.1840    0.5605 C   0  0  0  0  0  0  0  0  0  0  0  0
    5.6755    5.7952    0.8169 C   0  0  0  0  0  0  0  0  0  0  0  0
    6.6922    5.1288    1.5186 C   0  0  0  0  0  0  0  0  0  0  0  0
    6.4642    3.8209    1.9663 C   0  0  0  0  0  0  0  0  0  0  0  0
    5.2371    3.1924    1.7145 C   0  0  0  0  0  0  0  0  0  0  0  0
    7.3795    3.0692    2.6604 O   0  0  0  0  0  0  0  0  0  0  0  0
    8.6466    3.6530    2.9316 C   0  0  0  0  0  0  0  0  0  0  0  0
    1.0103    0.2397    1.1333 C   0  0  0  0  0  0  0  0  0  0  0  0
   -2.8238   -5.8888   -1.2171 C   0  0  0  0  0  0  0  0  0  0  0  0
   -2.1709   -5.8184   -2.2974 O   0  0  0  0  0  0  0  0  0  0  0  0
   -2.5303   -6.5024   -0.1531 O   0  5  0  0  0  0  0  0  0  0  0  0
   -6.2615   -7.8878   -1.6829 H   0  0  0  0  0  0  0  0  0  0  0  0
   -5.5903   -6.8017   -2.9180 H   0  0  0  0  0  0  0  0  0  0  0  0
   -4.5048   -7.7897   -1.9342 H   0  0  0  0  0  0  0  0  0  0  0  0
   -6.2910   -5.5478   -0.8315 H   0  0  0  0  0  0  0  0  0  0  0  0
   -5.1553   -6.5195    0.1172 H   0  0  0  0  0  0  0  0  0  0  0  0
   -5.9994   -3.1130   -0.6781 H   0  0  0  0  0  0  0  0  0  0  0  0
   -6.0557   -3.8403    0.9352 H   0  0  0  0  0  0  0  0  0  0  0  0
   -5.7471   -1.1101    0.6633 H   0  0  0  0  0  0  0  0  0  0  0  0
   -4.8224   -1.9692    1.9001 H   0  0  0  0  0  0  0  0  0  0  0  0
   -1.6057   -3.7196   -1.6042 H   0  0  0  0  0  0  0  0  0  0  0  0
   -0.3837   -1.5443   -1.8875 H   0  0  0  0  0  0  0  0  0  0  0  0
   -3.4474    0.4954    0.3579 H   0  0  0  0  0  0  0  0  0  0  0  0
   -1.6009    1.7453    0.7434 H   0  0  0  0  0  0  0  0  0  0  0  0
   -2.4018    2.2906   -0.7417 H   0  0  0  0  0  0  0  0  0  0  0  0
   -0.7396    3.9379   -0.1993 H   0  0  0  0  0  0  0  0  0  0  0  0
   -0.1949    3.0780   -1.6285 H   0  0  0  0  0  0  0  0  0  0  0  0
    3.6672    5.6954    0.0171 H   0  0  0  0  0  0  0  0  0  0  0  0
    5.8532    6.8097    0.4687 H   0  0  0  0  0  0  0  0  0  0  0  0
    7.6346    5.6321    1.7025 H   0  0  0  0  0  0  0  0  0  0  0  0
    5.0838    2.1784    2.0685 H   0  0  0  0  0  0  0  0  0  0  0  0
    9.2137    2.8970    3.4773 H   0  0  0  0  0  0  0  0  0  0  0  0
    8.5507    4.5525    3.5534 H   0  0  0  0  0  0  0  0  0  0  0  0
    9.1789    3.9069    2.0059 H   0  0  0  0  0  0  0  0  0  0  0  0
    1.1448   -0.4463    0.2917 H   0  0  0  0  0  0  0  0  0  0  0  0
    1.5944   -0.1306    1.9802 H   0  0  0  0  0  0  0  0  0  0  0  0
   -0.0456    0.2061    1.4013 H   0  0  0  0  0  0  0  0  0  0  0  0
  1  2  1  0  0  0  0
  1 35  1  0  0  0  0
  1 36  1  0  0  0  0
  1 37  1  0  0  0  0
  2  3  1  0  0  0  0
  2 38  1  0  0  0  0
  2 39  1  0  0  0  0
  3  4  1  0  0  0  0
  3  5  1  0  0  0  0
  3 32  1  0  0  0  0
  5  6  1  0  0  0  0
  5  7  1  0  0  0  0
  5 10  1  0  0  0  0
  7  8  1  0  0  0  0
  7 40  1  0  0  0  0
  7 41  1  0  0  0  0
  8  9  1  0  0  0  0
  8 42  1  0  0  0  0
  8 43  1  0  0  0  0
  9 10  2  0  0  0  0
  9 14  1  0  0  0  0
 10 11  1  0  0  0  0
 11 12  2  0  0  0  0
 11 44  1  0  0  0  0
 12 13  1  0  0  0  0
 12 45  1  0  0  0  0
 13 14  2  0  0  0  0
 13 15  1  0  0  0  0
 14 46  1  0  0  0  0
 15 16  1  0  0  0  0
 16 17  1  0  0  0  0
 16 47  1  0  0  0  0
 16 48  1  0  0  0  0
 17 18  1  0  0  0  0
 17 49  1  0  0  0  0
 17 50  1  0  0  0  0
 18 19  2  0  0  0  0
 18 22  1  0  0  0  0
 19 20  1  0  0  0  0
 19 31  1  0  0  0  0
 20 21  1  0  0  0  0
 21 22  2  0  0  0  0
 21 23  1  0  0  0  0
 23 24  2  0  0  0  0
 23 28  1  0  0  0  0
 24 25  1  0  0  0  0
 24 51  1  0  0  0  0
 25 26  2  0  0  0  0
 25 52  1  0  0  0  0
 26 27  1  0  0  0  0
 26 53  1  0  0  0  0
 27 28  2  0  0  0  0
 27 29  1  0  0  0  0
 28 54  1  0  0  0  0
 29 30  1  0  0  0  0
 30 55  1  0  0  0  0
 30 56  1  0  0  0  0
 30 57  1  0  0  0  0
 31 58  1  0  0  0  0
 31 59  1  0  0  0  0
 31 60  1  0  0  0  0
 32 33  2  0  0  0  0
 32 34  1  0  0  0  0
M  CHG  1  34  -1
M  END
$$$$
