60
-1 1 C26H28NO5
C                    -5.430155217605    -7.207273459640    -1.911234120831
C                    -5.330737472637    -6.082351979558    -0.873172454871
C                    -4.184467470430    -5.102282209103    -1.168905954277
H                    -4.350721852887    -4.637798637555    -2.150569955747
C                    -4.099253974236    -3.998314590782    -0.102140832685
H                    -3.710753434338    -4.485847010210     0.804378655469
C                    -5.426227611430    -3.270565076462     0.245140818957
C                    -4.999675054877    -1.898297579566     0.816582783723
C                    -3.695219929453    -1.633638831792     0.093727862262
C                    -3.188506074413    -2.825022672905    -0.436941961524
C                    -1.988444690148    -2.804207079857    -1.158796447009
C                    -1.311816689521    -1.592488053935    -1.323088926124
C                    -1.819956137383    -0.406843753517    -0.772920440863
C                    -3.024321843789    -0.414903482276    -0.056567821421
O                    -1.056699250277     0.731443393505    -0.988835035314
C                    -1.449698362685     1.925416228830    -0.330347419973
C                    -0.365394567339     2.968793215282    -0.550720438258
C                     0.952429415963     2.710708600041     0.124075810162
C                     1.455183496145     1.621627112372     0.788594278252
O                     2.742013104542     1.954105158548     1.187380398552
C                     2.948996727581     3.226376805540     0.741552821397
N                     1.919019767545     3.717307331134     0.108615252356
C                     4.231627637609     3.867678110355     1.013942377251
C                     4.454453159428     5.183952435238     0.560497140687
C                     5.675524275986     5.795159331539     0.816885261416
C                     6.692188899561     5.128751034043     1.518633473570
C                     6.464221246367     3.820850557512     1.966299809238
C                     5.237109148609     3.192390774900     1.714520356337
O                     7.379491256502     3.069201500612     2.660447353863
C                     8.646574061647     3.652955323527     2.931625506663
C                     1.010291308502     0.239685478175     1.133348304364
C                    -2.823848423383    -5.888769790545    -1.217123650361
O                    -2.170883693004    -5.818411473428    -2.297377615472
O                    -2.530347506754    -6.502442144638    -0.153133629314
H                    -6.261467982369    -7.887792547922    -1.682923259173
H                    -5.590335635245    -6.801688227116    -2.918046396096
H                    -4.504757941015    -7.789706159899    -1.934195056500
H                    -6.290955604543    -5.547849854412    -0.831516841955
H                    -5.155283259705    -6.519498573909     0.117168735203
H                    -5.999417512023    -3.113017987501    -0.678061557565
H                    -6.055705700331    -3.840264476548     0.935227341249
H                    -5.747130096626    -1.110143878384     0.663253501719
H                    -4.822359339395    -1.969203907311     1.900095617893
H                    -1.605731263976    -3.719607595676    -1.604194755611
H                    -0.383691806041    -1.544304246359    -1.887507587448
H                    -3.447352191536     0.495388287958     0.357900153302
H                    -1.600870496124     1.745288857242     0.743404438916
H                    -2.401752147497     2.290642332603    -0.741667742811
H                    -0.739625372783     3.937904556512    -0.199295842359
H                    -0.194924177127     3.077983778518    -1.628490990595
H                     3.667152592454     5.695408485392     0.017134419408
H                     5.853219284525     6.809719253303     0.468660642444
H                     7.634562456242     5.632084626772     1.702488253011
H                     5.083790529526     2.178446868327     2.068510530357
H                     9.213665300723     2.896992710345     3.477256382010
H                     8.550710768252     4.552518253361     3.553437982117
H                     9.178915275777     3.906860899333     2.005897018057
H                     1.144831661506    -0.446254496162     0.291675355796
H                     1.594444168078    -0.130634570097     1.980161087678
H                    -0.045612085709     0.206109782128     1.401289940551
