
  -OEChem-12122420533D

 60 63  0     1  0  0  0  0  0999 V2000
   -3.5747   -7.5024   -1.3592 C   0  0  0  0  0  0  0  0  0  0  0  0
   -3.2052   -6.4626   -0.2937 C   0  0  0  0  0  0  0  0  0  0  0  0
   -2.9019   -5.0798   -0.8925 C   0  0  1  0  0  0  0  0  0  0  0  0
   -3.7929   -4.7103   -1.4185 H   0  0  0  0  0  0  0  0  0  0  0  0
   -2.5149   -4.0700    0.2011 C   0  0  2  0  0  0  0  0  0  0  0  0
   -1.5187   -4.3746    0.5544 H   0  0  0  0  0  0  0  0  0  0  0  0
   -3.4796   -3.9766    1.4149 C   0  0  0  0  0  0  0  0  0  0  0  0
   -3.2653   -2.5621    2.0018 C   0  0  0  0  0  0  0  0  0  0  0  0
   -2.8600   -1.7586    0.7837 C   0  0  0  0  0  0  0  0  0  0  0  0
   -2.4377   -2.6146   -0.2396 C   0  0  0  0  0  0  0  0  0  0  0  0
   -2.0120   -2.0741   -1.4592 C   0  0  0  0  0  0  0  0  0  0  0  0
   -2.0139   -0.6872   -1.6287 C   0  0  0  0  0  0  0  0  0  0  0  0
   -2.4333    0.1618   -0.5942 C   0  0  0  0  0  0  0  0  0  0  0  0
   -2.8618   -0.3678    0.6296 C   0  0  0  0  0  0  0  0  0  0  0  0
   -2.3900    1.5192   -0.8777 O   0  0  0  0  0  0  0  0  0  0  0  0
   -2.9241    2.4239    0.0762 C   0  0  0  0  0  0  0  0  0  0  0  0
   -2.8997    3.8149   -0.5607 C   0  0  0  0  0  0  0  0  0  0  0  0
   -3.8661    3.9535   -1.6988 C   0  0  0  0  0  0  0  0  0  0  0  0
   -3.7705    3.4965   -2.9849 C   0  0  0  0  0  0  0  0  0  0  0  0
   -4.9491    3.8307   -3.6264 O   0  0  0  0  0  0  0  0  0  0  0  0
   -5.7056    4.4716   -2.6843 C   0  0  0  0  0  0  0  0  0  0  0  0
   -5.1063    4.5681   -1.5278 N   0  0  0  0  0  0  0  0  0  0  0  0
   -7.0304    4.9550   -3.0593 C   0  0  0  0  0  0  0  0  0  0  0  0
   -7.8214    5.6168   -2.0978 C   0  0  0  0  0  0  0  0  0  0  0  0
   -9.0855    6.0715   -2.4522 C   0  0  0  0  0  0  0  0  0  0  0  0
   -9.5910    5.8863   -3.7484 C   0  0  0  0  0  0  0  0  0  0  0  0
   -8.7995    5.2283   -4.6989 C   0  0  0  0  0  0  0  0  0  0  0  0
   -7.5228    4.7641   -4.3550 C   0  0  0  0  0  0  0  0  0  0  0  0
   -9.1833    4.9887   -5.9947 O   0  0  0  0  0  0  0  0  0  0  0  0
  -10.4844    5.4038   -6.3882 C   0  0  0  0  0  0  0  0  0  0  0  0
   -2.7506    2.7497   -3.7656 C   0  0  0  0  0  0  0  0  0  0  0  0
   -1.7324   -5.2077   -1.9347 C   0  0  0  0  0  0  0  0  0  0  0  0
   -1.9926   -4.8483   -3.1186 O   0  0  0  0  0  0  0  0  0  0  0  0
   -0.6488   -5.6537   -1.4636 O   0  5  0  0  0  0  0  0  0  0  0  0
   -3.7960   -8.4774   -0.9043 H   0  0  0  0  0  0  0  0  0  0  0  0
   -4.4567   -7.1860   -1.9299 H   0  0  0  0  0  0  0  0  0  0  0  0
   -2.7526   -7.6319   -2.0687 H   0  0  0  0  0  0  0  0  0  0  0  0
   -4.0240   -6.3924    0.4371 H   0  0  0  0  0  0  0  0  0  0  0  0
   -2.3123   -6.8007    0.2459 H   0  0  0  0  0  0  0  0  0  0  0  0
   -4.5134   -4.0631    1.0551 H   0  0  0  0  0  0  0  0  0  0  0  0
   -3.3159   -4.7699    2.1504 H   0  0  0  0  0  0  0  0  0  0  0  0
   -4.1517   -2.1619    2.5093 H   0  0  0  0  0  0  0  0  0  0  0  0
   -2.4471   -2.5680    2.7374 H   0  0  0  0  0  0  0  0  0  0  0  0
   -1.7137   -2.7311   -2.2723 H   0  0  0  0  0  0  0  0  0  0  0  0
   -1.6973   -0.2421   -2.5687 H   0  0  0  0  0  0  0  0  0  0  0  0
   -3.1956    0.2720    1.4413 H   0  0  0  0  0  0  0  0  0  0  0  0
   -2.3164    2.4170    0.9930 H   0  0  0  0  0  0  0  0  0  0  0  0
   -3.9530    2.1455    0.3407 H   0  0  0  0  0  0  0  0  0  0  0  0
   -1.8766    4.0213   -0.8932 H   0  0  0  0  0  0  0  0  0  0  0  0
   -3.1585    4.5576    0.2001 H   0  0  0  0  0  0  0  0  0  0  0  0
   -7.4294    5.7551   -1.0959 H   0  0  0  0  0  0  0  0  0  0  0  0
   -9.7011    6.5799   -1.7141 H   0  0  0  0  0  0  0  0  0  0  0  0
  -10.5820    6.2507   -3.9941 H   0  0  0  0  0  0  0  0  0  0  0  0
   -6.9304    4.2519   -5.1057 H   0  0  0  0  0  0  0  0  0  0  0  0
  -10.5901    5.1062   -7.4327 H   0  0  0  0  0  0  0  0  0  0  0  0
  -10.6014    6.4924   -6.3083 H   0  0  0  0  0  0  0  0  0  0  0  0
  -11.2615    4.9103   -5.7906 H   0  0  0  0  0  0  0  0  0  0  0  0
   -3.1081    1.7447   -4.0149 H   0  0  0  0  0  0  0  0  0  0  0  0
   -2.5094    3.2697   -4.6997 H   0  0  0  0  0  0  0  0  0  0  0  0
   -1.8468    2.6333   -3.1675 H   0  0  0  0  0  0  0  0  0  0  0  0
  1  2  1  0  0  0  0
  1 35  1  0  0  0  0
  1 36  1  0  0  0  0
  1 37  1  0  0  0  0
  2  3  1  0  0  0  0
  2 38  1  0  0  0  0
  2 39  1  0  0  0  0
  3  4  1  0  0  0  0
  3  5  1  0  0  0  0
  3 32  1  0  0  0  0
  5  6  1  0  0  0  0
  5  7  1  0  0  0  0
  5 10  1  0  0  0  0
  7  8  1  0  0  0  0
  7 40  1  0  0  0  0
  7 41  1  0  0  0  0
  8  9  1  0  0  0  0
  8 42  1  0  0  0  0
  8 43  1  0  0  0  0
  9 10  2  0  0  0  0
  9 14  1  0  0  0  0
 10 11  1  0  0  0  0
 11 12  2  0  0  0  0
 11 44  1  0  0  0  0
 12 13  1  0  0  0  0
 12 45  1  0  0  0  0
 13 14  2  0  0  0  0
 13 15  1  0  0  0  0
 14 46  1  0  0  0  0
 15 16  1  0  0  0  0
 16 17  1  0  0  0  0
 16 47  1  0  0  0  0
 16 48  1  0  0  0  0
 17 18  1  0  0  0  0
 17 49  1  0  0  0  0
 17 50  1  0  0  0  0
 18 19  2  0  0  0  0
 18 22  1  0  0  0  0
 19 20  1  0  0  0  0
 19 31  1  0  0  0  0
 20 21  1  0  0  0  0
 21 22  2  0  0  0  0
 21 23  1  0  0  0  0
 23 24  2  0  0  0  0
 23 28  1  0  0  0  0
 24 25  1  0  0  0  0
 24 51  1  0  0  0  0
 25 26  2  0  0  0  0
 25 52  1  0  0  0  0
 26 27  1  0  0  0  0
 26 53  1  0  0  0  0
 27 28  2  0  0  0  0
 27 29  1  0  0  0  0
 28 54  1  0  0  0  0
 29 30  1  0  0  0  0
 30 55  1  0  0  0  0
 30 56  1  0  0  0  0
 30 57  1  0  0  0  0
 31 58  1  0  0  0  0
 31 59  1  0  0  0  0
 31 60  1  0  0  0  0
 32 33  2  0  0  0  0
 32 34  1  0  0  0  0
M  CHG  1  34  -1
M  END
$$$$
