60
-1 1 C26H28NO5
C                    -5.426254070291    -7.379824505851     1.049180356503
C                    -4.628922208439    -6.226782929801     1.671872202769
C                    -4.029884541155    -5.282788693828     0.617366339113
H                    -4.842831634019    -4.841443427567     0.024430111527
C                    -3.220308492335    -4.150941575251     1.272257517960
H                    -2.305346304584    -4.620855050032     1.662444725549
C                    -3.925857699725    -3.382139138523     2.422596654788
C                    -3.237540888904    -1.998628795527     2.471849574958
C                    -2.821354130725    -1.788916517827     1.030964187749
C                    -2.813046598862    -3.010558145626     0.348993852133
C                    -2.449318399976    -3.043478191109    -1.003250394044
C                    -2.101927049899    -1.852213134404    -1.645982488201
C                    -2.111340519798    -0.633431164376    -0.952249527462
C                    -2.470656333266    -0.589574010218     0.401396032886
O                    -1.771414230297     0.485743355947    -1.698302985160
C                    -1.907295290807     1.756848304775    -1.081505257544
C                    -1.687182913465     2.826075751430    -2.140352665665
C                    -2.756148036392     2.948950503952    -3.189627332130
C                    -3.819737031074     2.150409006498    -3.524613302569
O                    -4.460394279599     2.763235005144    -4.591904955485
C                    -3.749428102066     3.899914014373    -4.845527903035
N                    -2.733777344983     4.053862693010    -4.041504288432
C                    -4.193143912894     4.774554300991    -5.927127698087
C                    -5.319498574199     4.449382858568    -6.708795337699
C                    -5.711781249458     5.308704242828    -7.730328095274
C                    -5.008735817581     6.491597594349    -7.996862871512
C                    -3.888010744530     6.808714292862    -7.214829983206
C                    -3.482468444154     5.953072732841    -6.184557154899
O                    -3.123636642622     7.937330996240    -7.383011560270
C                    -3.489411704250     8.836326314722    -8.420952928375
C                    -4.403332132578     0.849962509573    -3.082309638170
C                    -3.100864411546    -6.101836062200    -0.350626559624
O                    -3.399733518762    -6.068372641682    -1.578667326345
O                    -2.143987160583    -6.700689067805     0.215348396002
H                    -5.852157548661    -8.033066562131     1.822599187047
H                    -6.251246580580    -7.001269428285     0.432766626329
H                    -4.783089278511    -7.984574656999     0.403654804643
H                    -5.282522814030    -5.669252906902     2.358427170985
H                    -3.803875711492    -6.638249850602     2.265671999937
H                    -4.984542645151    -3.247327322902     2.164293372940
H                    -3.881455133200    -3.912445819739     3.378500516022
H                    -3.886266444150    -1.201772309440     2.856065922617
H                    -2.348410915325    -2.031604124153     3.118881741963
H                    -2.469985675236    -3.983499126455    -1.549473344605
H                    -1.826154141338    -1.846392857142    -2.697749828042
H                    -2.482905954884     0.342205704461     0.958890733207
H                    -1.163533112221     1.870435896706    -0.279766841807
H                    -2.902555225388     1.864281078903    -0.627711975836
H                    -0.724129291311     2.643009715913    -2.632000099377
H                    -1.596958447759     3.797573247955    -1.640062937294
H                    -5.868596211164     3.535232449825    -6.510754989440
H                    -6.579381203712     5.061863923632    -8.337160548163
H                    -5.338888235752     7.140611551174    -8.799957774818
H                    -2.613963067692     6.206272402123    -5.585530520960
H                    -2.762216471308     9.649188178304    -8.382976943901
H                    -4.496429162687     9.244454825838    -8.264589852255
H                    -3.442490344162     8.354814995308    -9.406280693555
H                    -5.441058025014     0.783768060380    -3.420062554532
H                    -3.848857854065     0.000803677305    -3.492351183112
H                    -4.386103450833     0.742256357206    -1.997645928235
