
  -OEChem-12102412483D

 60 63  0     1  0  0  0  0  0999 V2000
   -5.1916   -6.6854    2.5103 C   0  0  0  0  0  0  0  0  0  0  0  0
   -4.5780   -6.2048    1.1891 C   0  0  0  0  0  0  0  0  0  0  0  0
   -4.3275   -4.6886    1.1685 C   0  0  1  0  0  0  0  0  0  0  0  0
   -3.6272   -4.4270    1.9737 H   0  0  0  0  0  0  0  0  0  0  0  0
   -3.7304   -4.2359   -0.1749 C   0  0  2  0  0  0  0  0  0  0  0  0
   -4.5431   -4.3202   -0.9116 H   0  0  0  0  0  0  0  0  0  0  0  0
   -2.5022   -5.0401   -0.6823 C   0  0  0  0  0  0  0  0  0  0  0  0
   -1.7477   -4.0799   -1.6309 C   0  0  0  0  0  0  0  0  0  0  0  0
   -2.0691   -2.7202   -1.0469 C   0  0  0  0  0  0  0  0  0  0  0  0
   -3.1988   -2.8096   -0.2145 C   0  0  0  0  0  0  0  0  0  0  0  0
   -3.6710   -1.6661    0.4272 C   0  0  0  0  0  0  0  0  0  0  0  0
   -3.0130   -0.4388    0.2341 C   0  0  0  0  0  0  0  0  0  0  0  0
   -1.8895   -0.3648   -0.5980 C   0  0  0  0  0  0  0  0  0  0  0  0
   -1.4096   -1.5118   -1.2485 C   0  0  0  0  0  0  0  0  0  0  0  0
   -1.1639    0.7957   -0.8259 O   0  0  0  0  0  0  0  0  0  0  0  0
   -1.5376    1.9629   -0.1073 C   0  0  0  0  0  0  0  0  0  0  0  0
   -0.4873    3.0320   -0.3655 C   0  0  0  0  0  0  0  0  0  0  0  0
    0.8787    2.7683    0.2032 C   0  0  0  0  0  0  0  0  0  0  0  0
    1.4252    1.6779    0.8297 C   0  0  0  0  0  0  0  0  0  0  0  0
    2.7401    2.0044    1.1310 O   0  0  0  0  0  0  0  0  0  0  0  0
    2.9181    3.2760    0.6703 C   0  0  0  0  0  0  0  0  0  0  0  0
    1.8461    3.7703    0.1146 N   0  0  0  0  0  0  0  0  0  0  0  0
    4.2186    3.9142    0.8496 C   0  0  0  0  0  0  0  0  0  0  0  0
    4.4130    5.2277    0.3754 C   0  0  0  0  0  0  0  0  0  0  0  0
    5.6494    5.8379    0.5468 C   0  0  0  0  0  0  0  0  0  0  0  0
    6.7095    5.1732    1.1829 C   0  0  0  0  0  0  0  0  0  0  0  0
    6.5098    3.8681    1.6516 C   0  0  0  0  0  0  0  0  0  0  0  0
    5.2679    3.2406    1.4847 C   0  0  0  0  0  0  0  0  0  0  0  0
    7.4682    3.1187    2.2883 O   0  0  0  0  0  0  0  0  0  0  0  0
    8.7459    3.7083    2.4869 C   0  0  0  0  0  0  0  0  0  0  0  0
    1.0019    0.2979    1.2073 C   0  0  0  0  0  0  0  0  0  0  0  0
   -5.6804   -3.9311    1.4262 C   0  0  0  0  0  0  0  0  0  0  0  0
   -5.7062   -3.1475    2.4185 O   0  0  0  0  0  0  0  0  0  0  0  0
   -6.5972   -4.1872    0.5966 O   0  5  0  0  0  0  0  0  0  0  0  0
   -5.3510   -7.7720    2.5035 H   0  0  0  0  0  0  0  0  0  0  0  0
   -4.5398   -6.4434    3.3590 H   0  0  0  0  0  0  0  0  0  0  0  0
   -6.1548   -6.1974    2.6842 H   0  0  0  0  0  0  0  0  0  0  0  0
   -3.6405   -6.7510    1.0102 H   0  0  0  0  0  0  0  0  0  0  0  0
   -5.2609   -6.4462    0.3657 H   0  0  0  0  0  0  0  0  0  0  0  0
   -1.8566   -5.2821    0.1724 H   0  0  0  0  0  0  0  0  0  0  0  0
   -2.7807   -5.9811   -1.1657 H   0  0  0  0  0  0  0  0  0  0  0  0
   -0.6715   -4.2811   -1.6925 H   0  0  0  0  0  0  0  0  0  0  0  0
   -2.1493   -4.1518   -2.6523 H   0  0  0  0  0  0  0  0  0  0  0  0
   -4.5259   -1.7309    1.0959 H   0  0  0  0  0  0  0  0  0  0  0  0
   -3.3918    0.4423    0.7412 H   0  0  0  0  0  0  0  0  0  0  0  0
   -0.5305   -1.4304   -1.8845 H   0  0  0  0  0  0  0  0  0  0  0  0
   -1.6159    1.7507    0.9674 H   0  0  0  0  0  0  0  0  0  0  0  0
   -2.5212    2.3174   -0.4456 H   0  0  0  0  0  0  0  0  0  0  0  0
   -0.8493    3.9809    0.0484 H   0  0  0  0  0  0  0  0  0  0  0  0
   -0.3939    3.1846   -1.4473 H   0  0  0  0  0  0  0  0  0  0  0  0
    3.5915    5.7387   -0.1152 H   0  0  0  0  0  0  0  0  0  0  0  0
    5.8048    6.8506    0.1830 H   0  0  0  0  0  0  0  0  0  0  0  0
    7.6624    5.6763    1.3020 H   0  0  0  0  0  0  0  0  0  0  0  0
    5.1361    2.2296    1.8556 H   0  0  0  0  0  0  0  0  0  0  0  0
    9.3455    2.9566    3.0029 H   0  0  0  0  0  0  0  0  0  0  0  0
    8.6808    4.6097    3.1100 H   0  0  0  0  0  0  0  0  0  0  0  0
    9.2255    3.9611    1.5324 H   0  0  0  0  0  0  0  0  0  0  0  0
    1.0995   -0.3941    0.3651 H   0  0  0  0  0  0  0  0  0  0  0  0
    1.6260   -0.0631    2.0295 H   0  0  0  0  0  0  0  0  0  0  0  0
   -0.0398    0.2627    1.5253 H   0  0  0  0  0  0  0  0  0  0  0  0
  1  2  1  0  0  0  0
  1 35  1  0  0  0  0
  1 36  1  0  0  0  0
  1 37  1  0  0  0  0
  2  3  1  0  0  0  0
  2 38  1  0  0  0  0
  2 39  1  0  0  0  0
  3  4  1  0  0  0  0
  3  5  1  0  0  0  0
  3 32  1  0  0  0  0
  5  6  1  0  0  0  0
  5  7  1  0  0  0  0
  5 10  1  0  0  0  0
  7  8  1  0  0  0  0
  7 40  1  0  0  0  0
  7 41  1  0  0  0  0
  8  9  1  0  0  0  0
  8 42  1  0  0  0  0
  8 43  1  0  0  0  0
  9 10  2  0  0  0  0
  9 14  1  0  0  0  0
 10 11  1  0  0  0  0
 11 12  2  0  0  0  0
 11 44  1  0  0  0  0
 12 13  1  0  0  0  0
 12 45  1  0  0  0  0
 13 14  2  0  0  0  0
 13 15  1  0  0  0  0
 14 46  1  0  0  0  0
 15 16  1  0  0  0  0
 16 17  1  0  0  0  0
 16 47  1  0  0  0  0
 16 48  1  0  0  0  0
 17 18  1  0  0  0  0
 17 49  1  0  0  0  0
 17 50  1  0  0  0  0
 18 19  2  0  0  0  0
 18 22  1  0  0  0  0
 19 20  1  0  0  0  0
 19 31  1  0  0  0  0
 20 21  1  0  0  0  0
 21 22  2  0  0  0  0
 21 23  1  0  0  0  0
 23 24  2  0  0  0  0
 23 28  1  0  0  0  0
 24 25  1  0  0  0  0
 24 51  1  0  0  0  0
 25 26  2  0  0  0  0
 25 52  1  0  0  0  0
 26 27  1  0  0  0  0
 26 53  1  0  0  0  0
 27 28  2  0  0  0  0
 27 29  1  0  0  0  0
 28 54  1  0  0  0  0
 29 30  1  0  0  0  0
 30 55  1  0  0  0  0
 30 56  1  0  0  0  0
 30 57  1  0  0  0  0
 31 58  1  0  0  0  0
 31 59  1  0  0  0  0
 31 60  1  0  0  0  0
 32 33  2  0  0  0  0
 32 34  1  0  0  0  0
M  CHG  1  34  -1
M  END
$$$$
