
  -OEChem-12122420533D

 29 29  0     1  0  0  0  0  0999 V2000
    1.3697    5.8899   -1.2734 O   0  0  0  0  0  0  0  0  0  0  0  0
    1.0937    4.5782   -0.9404 C   0  0  0  0  0  0  0  0  0  0  0  0
   -0.0797    4.1509   -0.3231 C   0  0  0  0  0  0  0  0  0  0  0  0
   -0.8503    4.8744   -0.0632 H   0  0  0  0  0  0  0  0  0  0  0  0
   -0.2635    2.7968   -0.0300 C   0  0  0  0  0  0  0  0  0  0  0  0
   -1.1683    2.4775    0.4760 H   0  0  0  0  0  0  0  0  0  0  0  0
    0.7334    1.8671   -0.3550 C   0  0  0  0  0  0  0  0  0  0  0  0
    0.5621    0.3974   -0.0515 C   0  0  2  0  0  0  0  0  0  0  0  0
   -0.7358   -0.2206   -0.5911 C   0  0  0  0  0  0  0  0  0  0  0  0
   -0.7025   -0.1659   -2.0505 N   0  0  0  0  0  0  0  0  0  0  0  0
   -1.8817   -0.7880   -2.6555 C   0  0  0  0  0  0  0  0  0  0  0  0
   -1.8386   -0.6626   -3.7414 H   0  0  0  0  0  0  0  0  0  0  0  0
   -1.8761   -1.8625   -2.4433 H   0  0  0  0  0  0  0  0  0  0  0  0
   -2.8400   -0.3766   -2.2935 H   0  0  0  0  0  0  0  0  0  0  0  0
   -0.6517    0.8095   -2.3392 H   0  0  0  0  0  0  0  0  0  0  0  0
   -0.7886   -1.2706   -0.2882 H   0  0  0  0  0  0  0  0  0  0  0  0
   -1.6058    0.2902   -0.1491 H   0  0  0  0  0  0  0  0  0  0  0  0
    0.6651    0.1619    1.7635 S   0  0  0  0  0  0  0  0  0  0  0  0
   -0.5647    0.6347    2.3868 O   0  0  0  0  0  0  0  0  0  0  0  0
    1.9802    0.5793    2.2514 O   0  0  0  0  0  0  0  0  0  0  0  0
    0.6451   -1.4963    1.8468 O   0  0  0  0  0  0  0  0  0  0  0  0
    1.5087   -1.7728    2.2097 H   0  0  0  0  0  0  0  0  0  0  0  0
    1.4135   -0.1669   -0.4382 H   0  0  0  0  0  0  0  0  0  0  0  0
    1.9127    2.3048   -0.9729 C   0  0  0  0  0  0  0  0  0  0  0  0
    2.7044    1.6060   -1.2266 H   0  0  0  0  0  0  0  0  0  0  0  0
    2.0988    3.6523   -1.2707 C   0  0  0  0  0  0  0  0  0  0  0  0
    3.2533    4.0613   -1.8777 O   0  0  0  0  0  0  0  0  0  0  0  0
    3.2138    5.0284   -1.9793 H   0  0  0  0  0  0  0  0  0  0  0  0
    0.6630    6.4690   -0.9479 H   0  0  0  0  0  0  0  0  0  0  0  0
  1  2  1  0  0  0  0
  1 29  1  0  0  0  0
  2  3  2  0  0  0  0
  2 26  1  0  0  0  0
  3  4  1  0  0  0  0
  3  5  1  0  0  0  0
  5  6  1  0  0  0  0
  5  7  2  0  0  0  0
  7  8  1  0  0  0  0
  7 24  1  0  0  0  0
  8  9  1  0  0  0  0
  8 18  1  0  0  0  0
  8 23  1  0  0  0  0
  9 10  1  0  0  0  0
  9 16  1  0  0  0  0
  9 17  1  0  0  0  0
 10 11  1  0  0  0  0
 10 15  1  0  0  0  0
 11 12  1  0  0  0  0
 11 13  1  0  0  0  0
 11 14  1  0  0  0  0
 18 19  2  0  0  0  0
 18 20  2  0  0  0  0
 18 21  1  0  0  0  0
 21 22  1  0  0  0  0
 24 25  1  0  0  0  0
 24 26  2  0  0  0  0
 26 27  1  0  0  0  0
 27 28  1  0  0  0  0
M  END
$$$$
