
  -OEChem-12122420533D

 11 11  0     0  0  0  0  0  0999 V2000
    1.1326   -0.0640    1.7707 C   0  0  0  0  0  0  0  0  0  0  0  0
    0.3502   -0.0139    0.5272 N   0  0  0  0  0  0  0  0  0  0  0  0
    0.2288   -1.1689   -0.2381 C   0  0  0  0  0  0  0  0  0  0  0  0
    0.7365   -2.2371    0.0321 O   0  0  0  0  0  0  0  0  0  0  0  0
   -0.7649   -0.9598   -1.7153 S   0  0  0  0  0  0  0  0  0  0  0  0
   -1.2061    1.0849   -1.3538 S   0  0  0  0  0  0  0  0  0  0  0  0
   -0.2772    1.1768    0.1766 C   0  0  0  0  0  0  0  0  0  0  0  0
   -0.2218    2.2050    0.8181 O   0  0  0  0  0  0  0  0  0  0  0  0
    0.4889   -0.3381    2.6103 H   0  0  0  0  0  0  0  0  0  0  0  0
    1.9150   -0.8122    1.6507 H   0  0  0  0  0  0  0  0  0  0  0  0
    1.5595    0.9228    1.9454 H   0  0  0  0  0  0  0  0  0  0  0  0
  1  2  1  0  0  0  0
  1  9  1  0  0  0  0
  1 10  1  0  0  0  0
  1 11  1  0  0  0  0
  2  3  1  0  0  0  0
  2  7  1  0  0  0  0
  3  4  2  0  0  0  0
  3  5  1  0  0  0  0
  5  6  1  0  0  0  0
  6  7  1  0  0  0  0
  7  8  2  0  0  0  0
M  END
$$$$
