48
0 1 C19H20N4O4S
N                    -0.233575852106     4.604908575253     2.155970182723
S                    -0.967874939844     4.250769374347     0.837744665046
O                    -1.451364662345     2.857675298685     0.746491373007
C                    -2.409325176100     5.313532974291     0.519188017133
H                    -2.906817160433     4.980753625195    -0.394339105525
H                    -3.067165274331     5.178665007676     1.379393185543
H                    -2.092431367028     6.353753535101     0.444118514685
C                     0.065324809948     4.626844521124    -0.631071377981
C                     1.259272170682     3.676167173863    -0.684910195485
C                     2.250084307307     4.120194860572    -1.775466933965
O                     3.629569823690     3.875587976128    -1.411994105418
C                     4.150403269733     4.681923169082    -0.461673069048
N                     3.380405818569     5.594984700462     0.083312935075
N                     3.978677104958     6.340650842776     1.041535767265
C                     5.293662671662     6.216099064172     1.487918758237
N                     5.535627824093     7.063080729101     2.496077948257
C                     4.365060729634     7.722510041747     2.700254397321
H                     4.266593312852     8.488047333374     3.459989557172
C                     3.366662043929     7.302858389946     1.816414179684
C                     1.972335265830     7.667042871882     1.703254210565
C                     0.997787671239     7.788625050857     2.654096153105
H                     1.110884657686     7.575840121558     3.707902529157
C                    -0.194255381801     8.214870345955     1.966045290875
C                     0.160670176440     8.324723386141     0.607549228713
C                    -0.721144070371     8.726118159585    -0.392489318959
H                    -0.409079236184     8.808702481142    -1.428594103469
C                    -2.020598624615     9.037356392510     0.021170453994
H                    -2.746335603919     9.370511997187    -0.715167415952
C                    -2.416896691257     8.921566788370     1.369580483189
H                    -3.434808257428     9.158805652754     1.664772375012
C                    -1.517327876972     8.501921872995     2.349143465921
O                    -1.897816890864     8.387385365782     3.665573644076
C                    -2.297733529481     7.052429529581     4.035646910556
H                    -2.432160061758     7.062755163406     5.118573834426
H                    -1.540795399278     6.311445716564     3.755928229166
H                    -3.248535609102     6.794247487524     3.551970399083
O                     1.480582853942     7.982729437233     0.438934239637
C                     6.093394849590     5.234498378755     0.856261697503
H                     7.124007859466     5.111947673190     1.172004181010
C                     5.525052873718     4.459319377806    -0.120329875815
H                     6.070490647009     3.680606965369    -0.641296748600
H                     2.140303282847     5.185601187382    -1.996883632588
H                     2.117175582272     3.551921709488    -2.697036031486
H                     0.919679913712     2.653213162720    -0.863316762160
H                     1.758119166181     3.687378819675     0.284996086335
H                    -0.582261278593     4.535113456149    -1.508629918163
H                     0.394082634498     5.664830350698    -0.525365695391
H                     0.320736979732     5.457822909392     2.057546052637
