48
0 1 C19H20N4O4S
N                    -0.072786123950     1.750032078960    -4.676944654008
S                    -0.072755775637     3.271916976066    -4.962960925212
O                     0.818947724303     3.690290410898    -6.060124737507
C                    -1.737915825874     3.925318071264    -5.319334418137
H                    -1.674247668685     4.998346666616    -5.510737846987
H                    -2.073537973155     3.397641395493    -6.214018085375
H                    -2.405203589435     3.712927077356    -4.480563646729
C                     0.376734004155     4.270424719902    -3.485877223825
C                     1.812710071503     3.950528745636    -3.075629029890
C                     2.195957495690     4.754245844923    -1.842239212921
O                     3.549472412768     4.386852405923    -1.503135143095
C                     4.089624986334     4.995873207665    -0.425425890646
N                     3.365450355119     5.868039818370     0.234001273541
N                     3.989785338959     6.429292348941     1.299265606229
C                     5.278777022561     6.132795088067     1.748735991677
N                     5.572059203790     6.831491445287     2.852342356591
C                     4.467056409010     7.577294099446     3.107586909493
H                     4.426743895480     8.266889973919     3.941845037569
C                     3.454065301880     7.359384125904     2.165911887898
C                     2.129063273137     7.922789788585     2.078497416682
C                     1.280895658578     8.356061768567     3.062938698907
H                     1.450159810505     8.265862089521     4.126971286969
C                     0.118269640764     8.882587049980     2.395666371445
C                     0.354710384203     8.708697926274     1.017464861229
C                    -0.551798668576     9.060062587563     0.021960822492
H                    -0.327194275229     8.910697308543    -1.029322399577
C                    -1.759090380991     9.615080421031     0.454845016122
H                    -2.504248423222     9.909237924868    -0.278938335507
C                    -2.032385422554     9.810291581543     1.824026827784
H                    -2.977372924152    10.241773259769     2.140991795316
C                    -1.105501083917     9.451089572926     2.800432982699
O                    -1.409656332795     9.617034164460     4.135953535651
C                    -0.699619385153    10.687798267649     4.772217798394
H                    -1.008795763745    10.683570549203     5.819208816482
H                    -0.960856324913    11.649876552702     4.314040500459
H                     0.385617947587    10.545052545734     4.710381033571
O                     1.584387885453     8.130695365328     0.820918237358
C                     6.020706200082     5.188624202158     1.002699790448
H                     7.028236378318     4.942227878517     1.320639655863
C                     5.432187416848     4.616286901302    -0.094153230779
H                     5.935634967889     3.885292879793    -0.716628103806
H                     1.542512346488     4.534929974535    -0.990998232374
H                     2.152533102655     5.833126849177    -2.024069699028
H                     2.491433264627     4.190282715217    -3.898655509255
H                     1.912024028945     2.881782268148    -2.865195250814
H                     0.257171890388     5.322193192182    -3.764055237516
H                    -0.341728751749     4.021624968623    -2.696856068900
H                    -0.733910269492     1.503695118419    -3.937080040208
