50
0 1 C21Cl2H18N4O4S
N                     2.646277951409    -0.100169933330    -1.725129607980
S                     2.121862912293    -1.506440214616    -1.340805842638
O                     2.947930832385    -2.740528138037    -1.359485972803
C                     0.601937071555    -1.940250775287    -2.252810929927
C                    -0.252538901575    -0.915342401577    -2.670459175018
H                     0.010057097557     0.119730566748    -2.469142283181
C                    -1.421457085137    -1.241682457786    -3.356517563339
H                    -2.111997466846    -0.474513617566    -3.694448177409
C                    -1.709582788997    -2.584043869752    -3.644003920585
C                    -2.981713240925    -2.873415209140    -4.375953445633
O                    -4.013387769703    -2.233548535493    -4.158851822031
N                    -2.907957008145    -3.829759859115    -5.357185511497
C                    -4.078406794600    -4.406928415610    -5.937674348065
C                    -4.534599386948    -5.629797178902    -5.397361835980
O                    -3.793023932642    -6.126024874210    -4.365187261197
C                    -4.229610292372    -7.338873201343    -3.746873409121
H                    -3.516110721277    -7.535351704232    -2.946463286393
H                    -4.219389546762    -8.171865193565    -4.458979354989
H                    -5.232721819732    -7.223784857551    -3.321708021833
C                    -5.665806095265    -6.256881635235    -5.924424936067
H                    -6.039944014234    -7.189577858383    -5.521974083664
C                    -6.322558676118    -5.656403828047    -7.002774572317
Cl                   -7.741126411350    -6.446829308161    -7.664240158870
C                    -5.876873151293    -4.468495464100    -7.565889515623
H                    -6.374005533252    -4.035180128630    -8.426056985449
C                    -4.752235802331    -3.832399490294    -7.020085996211
C                    -4.279846672512    -2.584885896530    -7.732626798743
O                    -4.151266251928    -2.593502621346    -8.956194658048
N                    -4.056538392907    -1.498758101423    -6.930517699662
C                    -3.487673118983    -0.267304284571    -7.289396481547
N                    -3.200021118687     0.510890153337    -6.234216080992
C                    -2.658742297264     1.711446471756    -6.454161005498
H                    -2.441267529644     2.322947045534    -5.580844609133
C                    -2.373463233416     2.182665707181    -7.736749729519
Cl                   -1.658798599316     3.767248747897    -7.950961442288
C                    -2.667776595817     1.373548428543    -8.835277972333
H                    -2.458736505468     1.715834372145    -9.844320390868
C                    -3.239002730365     0.122864068434    -8.617853413047
H                    -3.487726200749    -0.539170653500    -9.435652473546
H                    -4.250035188593    -1.591391508794    -5.929354094782
H                    -2.054045831144    -4.371376115678    -5.418791682059
C                    -0.836129441570    -3.600217247540    -3.232463020809
H                    -1.074942375318    -4.643096029523    -3.427097028905
C                     0.325380001746    -3.280578717986    -2.525229680488
H                     1.018157829370    -4.047816356535    -2.194095818512
C                     1.494407624447    -1.235702596552     0.324382201072
H                     1.040394559568    -2.167281112763     0.663544432766
H                     2.360761757961    -0.977436510570     0.935414622355
H                     0.773034753724    -0.419233585929     0.311865789471
H                     3.071574124845    -0.119130860799    -2.655326008569
