
  -OEChem-12102412493D

 50 52  0     1  0  0  0  0  0999 V2000
    2.6463   -0.1002   -1.7251 N   0  0  0  0  0  0  0  0  0  0  0  0
    2.1219   -1.5064   -1.3408 S   0  0  2  0  0  0  0  0  0  0  0  0
    2.9479   -2.7405   -1.3595 O   0  0  0  0  0  0  0  0  0  0  0  0
    0.6019   -1.9403   -2.2528 C   0  0  0  0  0  0  0  0  0  0  0  0
   -0.2525   -0.9153   -2.6705 C   0  0  0  0  0  0  0  0  0  0  0  0
    0.0101    0.1197   -2.4691 H   0  0  0  0  0  0  0  0  0  0  0  0
   -1.4215   -1.2417   -3.3565 C   0  0  0  0  0  0  0  0  0  0  0  0
   -2.1120   -0.4745   -3.6944 H   0  0  0  0  0  0  0  0  0  0  0  0
   -1.7096   -2.5840   -3.6440 C   0  0  0  0  0  0  0  0  0  0  0  0
   -2.9817   -2.8734   -4.3760 C   0  0  0  0  0  0  0  0  0  0  0  0
   -4.0134   -2.2335   -4.1589 O   0  0  0  0  0  0  0  0  0  0  0  0
   -2.9080   -3.8298   -5.3572 N   0  0  0  0  0  0  0  0  0  0  0  0
   -4.0784   -4.4069   -5.9377 C   0  0  0  0  0  0  0  0  0  0  0  0
   -4.5346   -5.6298   -5.3974 C   0  0  0  0  0  0  0  0  0  0  0  0
   -3.7930   -6.1260   -4.3652 O   0  0  0  0  0  0  0  0  0  0  0  0
   -4.2296   -7.3389   -3.7469 C   0  0  0  0  0  0  0  0  0  0  0  0
   -3.5161   -7.5354   -2.9465 H   0  0  0  0  0  0  0  0  0  0  0  0
   -4.2194   -8.1719   -4.4590 H   0  0  0  0  0  0  0  0  0  0  0  0
   -5.2327   -7.2238   -3.3217 H   0  0  0  0  0  0  0  0  0  0  0  0
   -5.6658   -6.2569   -5.9244 C   0  0  0  0  0  0  0  0  0  0  0  0
   -6.0399   -7.1896   -5.5220 H   0  0  0  0  0  0  0  0  0  0  0  0
   -6.3226   -5.6564   -7.0028 C   0  0  0  0  0  0  0  0  0  0  0  0
   -7.7411   -6.4468   -7.6642 Cl  0  0  0  0  0  0  0  0  0  0  0  0
   -5.8769   -4.4685   -7.5659 C   0  0  0  0  0  0  0  0  0  0  0  0
   -6.3740   -4.0352   -8.4261 H   0  0  0  0  0  0  0  0  0  0  0  0
   -4.7522   -3.8324   -7.0201 C   0  0  0  0  0  0  0  0  0  0  0  0
   -4.2798   -2.5849   -7.7326 C   0  0  0  0  0  0  0  0  0  0  0  0
   -4.1513   -2.5935   -8.9562 O   0  0  0  0  0  0  0  0  0  0  0  0
   -4.0565   -1.4988   -6.9305 N   0  0  0  0  0  0  0  0  0  0  0  0
   -3.4877   -0.2673   -7.2894 C   0  0  0  0  0  0  0  0  0  0  0  0
   -3.2000    0.5109   -6.2342 N   0  0  0  0  0  0  0  0  0  0  0  0
   -2.6587    1.7114   -6.4542 C   0  0  0  0  0  0  0  0  0  0  0  0
   -2.4413    2.3229   -5.5808 H   0  0  0  0  0  0  0  0  0  0  0  0
   -2.3735    2.1827   -7.7367 C   0  0  0  0  0  0  0  0  0  0  0  0
   -1.6588    3.7672   -7.9510 Cl  0  0  0  0  0  0  0  0  0  0  0  0
   -2.6678    1.3735   -8.8353 C   0  0  0  0  0  0  0  0  0  0  0  0
   -2.4587    1.7158   -9.8443 H   0  0  0  0  0  0  0  0  0  0  0  0
   -3.2390    0.1229   -8.6179 C   0  0  0  0  0  0  0  0  0  0  0  0
   -3.4877   -0.5392   -9.4357 H   0  0  0  0  0  0  0  0  0  0  0  0
   -4.2500   -1.5914   -5.9294 H   0  0  0  0  0  0  0  0  0  0  0  0
   -2.0540   -4.3714   -5.4188 H   0  0  0  0  0  0  0  0  0  0  0  0
   -0.8361   -3.6002   -3.2325 C   0  0  0  0  0  0  0  0  0  0  0  0
   -1.0749   -4.6431   -3.4271 H   0  0  0  0  0  0  0  0  0  0  0  0
    0.3254   -3.2806   -2.5252 C   0  0  0  0  0  0  0  0  0  0  0  0
    1.0182   -4.0478   -2.1941 H   0  0  0  0  0  0  0  0  0  0  0  0
    1.4944   -1.2357    0.3244 C   0  0  0  0  0  0  0  0  0  0  0  0
    1.0404   -2.1673    0.6635 H   0  0  0  0  0  0  0  0  0  0  0  0
    2.3608   -0.9774    0.9354 H   0  0  0  0  0  0  0  0  0  0  0  0
    0.7730   -0.4192    0.3119 H   0  0  0  0  0  0  0  0  0  0  0  0
    3.0716   -0.1191   -2.6553 H   0  0  0  0  0  0  0  0  0  0  0  0
  1  2  2  0  0  0  0
  1 50  1  0  0  0  0
  2  3  2  0  0  0  0
  2  4  1  0  0  0  0
  2 46  1  0  0  0  0
  4  5  2  0  0  0  0
  4 44  1  0  0  0  0
  5  6  1  0  0  0  0
  5  7  1  0  0  0  0
  7  8  1  0  0  0  0
  7  9  2  0  0  0  0
  9 10  1  0  0  0  0
  9 42  1  0  0  0  0
 10 11  2  0  0  0  0
 10 12  1  0  0  0  0
 12 13  1  0  0  0  0
 12 41  1  0  0  0  0
 13 14  2  0  0  0  0
 13 26  1  0  0  0  0
 14 15  1  0  0  0  0
 14 20  1  0  0  0  0
 15 16  1  0  0  0  0
 16 17  1  0  0  0  0
 16 18  1  0  0  0  0
 16 19  1  0  0  0  0
 20 21  1  0  0  0  0
 20 22  2  0  0  0  0
 22 23  1  0  0  0  0
 22 24  1  0  0  0  0
 24 25  1  0  0  0  0
 24 26  2  0  0  0  0
 26 27  1  0  0  0  0
 27 28  2  0  0  0  0
 27 29  1  0  0  0  0
 29 30  1  0  0  0  0
 29 40  1  0  0  0  0
 30 31  2  0  0  0  0
 30 38  1  0  0  0  0
 31 32  1  0  0  0  0
 32 33  1  0  0  0  0
 32 34  2  0  0  0  0
 34 35  1  0  0  0  0
 34 36  1  0  0  0  0
 36 37  1  0  0  0  0
 36 38  2  0  0  0  0
 38 39  1  0  0  0  0
 42 43  1  0  0  0  0
 42 44  2  0  0  0  0
 44 45  1  0  0  0  0
 46 47  1  0  0  0  0
 46 48  1  0  0  0  0
 46 49  1  0  0  0  0
M  END
$$$$
