
  -OEChem-12122420533D

 50 52  0     1  0  0  0  0  0999 V2000
    1.8168    0.9564   -4.1773 N   0  0  0  0  0  0  0  0  0  0  0  0
    1.7484   -0.1942   -3.1450 S   0  0  2  0  0  0  0  0  0  0  0  0
    2.8801   -1.0979   -2.8196 O   0  0  0  0  0  0  0  0  0  0  0  0
    0.3337   -1.3062   -3.4576 C   0  0  0  0  0  0  0  0  0  0  0  0
   -0.7595   -0.8118   -4.1683 C   0  0  0  0  0  0  0  0  0  0  0  0
   -0.7421    0.2079   -4.5422 H   0  0  0  0  0  0  0  0  0  0  0  0
   -1.8389   -1.6570   -4.4283 C   0  0  0  0  0  0  0  0  0  0  0  0
   -2.6583   -1.2820   -5.0348 H   0  0  0  0  0  0  0  0  0  0  0  0
   -1.8113   -2.9910   -3.9942 C   0  0  0  0  0  0  0  0  0  0  0  0
   -2.8586   -3.9788   -4.4057 C   0  0  0  0  0  0  0  0  0  0  0  0
   -2.5949   -5.1726   -4.5515 O   0  0  0  0  0  0  0  0  0  0  0  0
   -4.1161   -3.4830   -4.6700 N   0  0  0  0  0  0  0  0  0  0  0  0
   -5.0169   -4.1716   -5.5473 C   0  0  0  0  0  0  0  0  0  0  0  0
   -6.1080   -4.9166   -5.0649 C   0  0  0  0  0  0  0  0  0  0  0  0
   -6.4171   -5.0843   -3.7498 O   0  0  0  0  0  0  0  0  0  0  0  0
   -5.3704   -5.3951   -2.8078 C   0  0  0  0  0  0  0  0  0  0  0  0
   -5.8422   -6.0118   -2.0401 H   0  0  0  0  0  0  0  0  0  0  0  0
   -4.9762   -4.4826   -2.3538 H   0  0  0  0  0  0  0  0  0  0  0  0
   -4.5604   -5.9473   -3.2889 H   0  0  0  0  0  0  0  0  0  0  0  0
   -7.0058   -5.4917   -5.9783 C   0  0  0  0  0  0  0  0  0  0  0  0
   -7.8438   -6.0621   -5.5928 H   0  0  0  0  0  0  0  0  0  0  0  0
   -6.8116   -5.3235   -7.3444 C   0  0  0  0  0  0  0  0  0  0  0  0
   -7.9456   -6.0496   -8.4657 Cl  0  0  0  0  0  0  0  0  0  0  0  0
   -5.7320   -4.5915   -7.8442 C   0  0  0  0  0  0  0  0  0  0  0  0
   -5.6020   -4.4475   -8.9112 H   0  0  0  0  0  0  0  0  0  0  0  0
   -4.8372   -4.0310   -6.9358 C   0  0  0  0  0  0  0  0  0  0  0  0
   -3.7297   -3.1378   -7.4448 C   0  0  0  0  0  0  0  0  0  0  0  0
   -3.9786   -2.0276   -7.9078 O   0  0  0  0  0  0  0  0  0  0  0  0
   -2.4632   -3.6570   -7.3151 N   0  0  0  0  0  0  0  0  0  0  0  0
   -1.2458   -2.9505   -7.3817 C   0  0  0  0  0  0  0  0  0  0  0  0
   -0.2256   -3.6144   -6.8240 N   0  0  0  0  0  0  0  0  0  0  0  0
    0.9643   -3.0166   -6.7523 C   0  0  0  0  0  0  0  0  0  0  0  0
    1.7715   -3.5739   -6.2828 H   0  0  0  0  0  0  0  0  0  0  0  0
    1.1799   -1.7273   -7.2436 C   0  0  0  0  0  0  0  0  0  0  0  0
    2.7641   -0.9938   -7.1011 Cl  0  0  0  0  0  0  0  0  0  0  0  0
    0.1263   -1.0455   -7.8519 C   0  0  0  0  0  0  0  0  0  0  0  0
    0.2731   -0.0474   -8.2531 H   0  0  0  0  0  0  0  0  0  0  0  0
   -1.1187   -1.6650   -7.9331 C   0  0  0  0  0  0  0  0  0  0  0  0
   -1.9682   -1.1755   -8.3886 H   0  0  0  0  0  0  0  0  0  0  0  0
   -2.3689   -4.5696   -6.8739 H   0  0  0  0  0  0  0  0  0  0  0  0
   -4.2937   -2.4986   -4.5127 H   0  0  0  0  0  0  0  0  0  0  0  0
   -0.6930   -3.4754   -3.3009 C   0  0  0  0  0  0  0  0  0  0  0  0
   -0.6660   -4.5243   -3.0237 H   0  0  0  0  0  0  0  0  0  0  0  0
    0.3804   -2.6327   -3.0198 C   0  0  0  0  0  0  0  0  0  0  0  0
    1.2645   -2.9950   -2.5046 H   0  0  0  0  0  0  0  0  0  0  0  0
    1.2178    0.6568   -1.6496 C   0  0  0  0  0  0  0  0  0  0  0  0
    1.0571   -0.0957   -0.8767 H   0  0  0  0  0  0  0  0  0  0  0  0
    2.0347    1.3272   -1.3778 H   0  0  0  0  0  0  0  0  0  0  0  0
    0.3085    1.2200   -1.8576 H   0  0  0  0  0  0  0  0  0  0  0  0
    2.1851    0.6122   -5.0678 H   0  0  0  0  0  0  0  0  0  0  0  0
  1  2  2  0  0  0  0
  1 50  1  0  0  0  0
  2  3  2  0  0  0  0
  2  4  1  0  0  0  0
  2 46  1  0  0  0  0
  4  5  2  0  0  0  0
  4 44  1  0  0  0  0
  5  6  1  0  0  0  0
  5  7  1  0  0  0  0
  7  8  1  0  0  0  0
  7  9  2  0  0  0  0
  9 10  1  0  0  0  0
  9 42  1  0  0  0  0
 10 11  2  0  0  0  0
 10 12  1  0  0  0  0
 12 13  1  0  0  0  0
 12 41  1  0  0  0  0
 13 14  2  0  0  0  0
 13 26  1  0  0  0  0
 14 15  1  0  0  0  0
 14 20  1  0  0  0  0
 15 16  1  0  0  0  0
 16 17  1  0  0  0  0
 16 18  1  0  0  0  0
 16 19  1  0  0  0  0
 20 21  1  0  0  0  0
 20 22  2  0  0  0  0
 22 23  1  0  0  0  0
 22 24  1  0  0  0  0
 24 25  1  0  0  0  0
 24 26  2  0  0  0  0
 26 27  1  0  0  0  0
 27 28  2  0  0  0  0
 27 29  1  0  0  0  0
 29 30  1  0  0  0  0
 29 40  1  0  0  0  0
 30 31  2  0  0  0  0
 30 38  1  0  0  0  0
 31 32  1  0  0  0  0
 32 33  1  0  0  0  0
 32 34  2  0  0  0  0
 34 35  1  0  0  0  0
 34 36  1  0  0  0  0
 36 37  1  0  0  0  0
 36 38  2  0  0  0  0
 38 39  1  0  0  0  0
 42 43  1  0  0  0  0
 42 44  2  0  0  0  0
 44 45  1  0  0  0  0
 46 47  1  0  0  0  0
 46 48  1  0  0  0  0
 46 49  1  0  0  0  0
M  END
$$$$
