
  -OEChem-12122420533D

 50 52  0     1  0  0  0  0  0999 V2000
    2.1806   -1.1853   -0.7657 N   0  0  0  0  0  0  0  0  0  0  0  0
    1.7407   -0.7148   -2.1756 S   0  0  2  0  0  0  0  0  0  0  0  0
    1.3479    0.6787   -2.5052 O   0  0  0  0  0  0  0  0  0  0  0  0
    0.3956   -1.7522   -2.8403 C   0  0  0  0  0  0  0  0  0  0  0  0
    0.3562   -3.1087   -2.5036 C   0  0  0  0  0  0  0  0  0  0  0  0
    1.1187   -3.5260   -1.8515 H   0  0  0  0  0  0  0  0  0  0  0  0
   -0.6713   -3.9032   -3.0065 C   0  0  0  0  0  0  0  0  0  0  0  0
   -0.7066   -4.9683   -2.8006 H   0  0  0  0  0  0  0  0  0  0  0  0
   -1.6785   -3.3353   -3.7996 C   0  0  0  0  0  0  0  0  0  0  0  0
   -2.7008   -4.2574   -4.3939 C   0  0  0  0  0  0  0  0  0  0  0  0
   -2.4327   -5.4220   -4.6749 O   0  0  0  0  0  0  0  0  0  0  0  0
   -3.9394   -3.7109   -4.6594 N   0  0  0  0  0  0  0  0  0  0  0  0
   -4.8366   -4.3606   -5.5641 C   0  0  0  0  0  0  0  0  0  0  0  0
   -5.7837   -5.2887   -5.1023 C   0  0  0  0  0  0  0  0  0  0  0  0
   -5.8714   -5.6361   -3.7805 O   0  0  0  0  0  0  0  0  0  0  0  0
   -6.4368   -4.6411   -2.9145 C   0  0  0  0  0  0  0  0  0  0  0  0
   -6.4797   -5.0946   -1.9232 H   0  0  0  0  0  0  0  0  0  0  0  0
   -7.4487   -4.3749   -3.2430 H   0  0  0  0  0  0  0  0  0  0  0  0
   -5.8111   -3.7436   -2.8763 H   0  0  0  0  0  0  0  0  0  0  0  0
   -6.6330   -5.9268   -6.0122 C   0  0  0  0  0  0  0  0  0  0  0  0
   -7.3517   -6.6509   -5.6435 H   0  0  0  0  0  0  0  0  0  0  0  0
   -6.5387   -5.6258   -7.3705 C   0  0  0  0  0  0  0  0  0  0  0  0
   -7.6127   -6.4257   -8.5001 Cl  0  0  0  0  0  0  0  0  0  0  0  0
   -5.6118   -4.6987   -7.8491 C   0  0  0  0  0  0  0  0  0  0  0  0
   -5.5533   -4.4660   -8.9070 H   0  0  0  0  0  0  0  0  0  0  0  0
   -4.7498   -4.0880   -6.9377 C   0  0  0  0  0  0  0  0  0  0  0  0
   -3.7322   -3.0790   -7.4105 C   0  0  0  0  0  0  0  0  0  0  0  0
   -4.0651   -1.9648   -7.8047 O   0  0  0  0  0  0  0  0  0  0  0  0
   -2.4305   -3.5150   -7.3140 N   0  0  0  0  0  0  0  0  0  0  0  0
   -1.2644   -2.7275   -7.3236 C   0  0  0  0  0  0  0  0  0  0  0  0
   -0.1856   -3.3845   -6.8791 N   0  0  0  0  0  0  0  0  0  0  0  0
    0.9674   -2.7228   -6.7731 C   0  0  0  0  0  0  0  0  0  0  0  0
    1.8258   -3.2827   -6.4086 H   0  0  0  0  0  0  0  0  0  0  0  0
    1.0852   -1.3723   -7.1080 C   0  0  0  0  0  0  0  0  0  0  0  0
    2.6259   -0.5552   -6.9407 Cl  0  0  0  0  0  0  0  0  0  0  0  0
   -0.0325   -0.6914   -7.5912 C   0  0  0  0  0  0  0  0  0  0  0  0
    0.0373    0.3556   -7.8699 H   0  0  0  0  0  0  0  0  0  0  0  0
   -1.2381   -1.3776   -7.7132 C   0  0  0  0  0  0  0  0  0  0  0  0
   -2.1315   -0.8956   -8.0854 H   0  0  0  0  0  0  0  0  0  0  0  0
   -2.2724   -4.4550   -6.9558 H   0  0  0  0  0  0  0  0  0  0  0  0
   -4.0818   -2.7248   -4.4803 H   0  0  0  0  0  0  0  0  0  0  0  0
   -1.6335   -1.9685   -4.1110 C   0  0  0  0  0  0  0  0  0  0  0  0
   -2.3755   -1.5182   -4.7645 H   0  0  0  0  0  0  0  0  0  0  0  0
   -0.5854   -1.1728   -3.6443 C   0  0  0  0  0  0  0  0  0  0  0  0
   -0.5219   -0.1178   -3.8901 H   0  0  0  0  0  0  0  0  0  0  0  0
    3.1407   -1.1995   -3.1933 C   0  0  0  0  0  0  0  0  0  0  0  0
    2.9031   -0.9532   -4.2277 H   0  0  0  0  0  0  0  0  0  0  0  0
    3.9884   -0.6120   -2.8368 H   0  0  0  0  0  0  0  0  0  0  0  0
    3.3303   -2.2649   -3.0646 H   0  0  0  0  0  0  0  0  0  0  0  0
    1.4695   -0.9423   -0.0715 H   0  0  0  0  0  0  0  0  0  0  0  0
  1  2  2  0  0  0  0
  1 50  1  0  0  0  0
  2  3  2  0  0  0  0
  2  4  1  0  0  0  0
  2 46  1  0  0  0  0
  4  5  2  0  0  0  0
  4 44  1  0  0  0  0
  5  6  1  0  0  0  0
  5  7  1  0  0  0  0
  7  8  1  0  0  0  0
  7  9  2  0  0  0  0
  9 10  1  0  0  0  0
  9 42  1  0  0  0  0
 10 11  2  0  0  0  0
 10 12  1  0  0  0  0
 12 13  1  0  0  0  0
 12 41  1  0  0  0  0
 13 14  2  0  0  0  0
 13 26  1  0  0  0  0
 14 15  1  0  0  0  0
 14 20  1  0  0  0  0
 15 16  1  0  0  0  0
 16 17  1  0  0  0  0
 16 18  1  0  0  0  0
 16 19  1  0  0  0  0
 20 21  1  0  0  0  0
 20 22  2  0  0  0  0
 22 23  1  0  0  0  0
 22 24  1  0  0  0  0
 24 25  1  0  0  0  0
 24 26  2  0  0  0  0
 26 27  1  0  0  0  0
 27 28  2  0  0  0  0
 27 29  1  0  0  0  0
 29 30  1  0  0  0  0
 29 40  1  0  0  0  0
 30 31  2  0  0  0  0
 30 38  1  0  0  0  0
 31 32  1  0  0  0  0
 32 33  1  0  0  0  0
 32 34  2  0  0  0  0
 34 35  1  0  0  0  0
 34 36  1  0  0  0  0
 36 37  1  0  0  0  0
 36 38  2  0  0  0  0
 38 39  1  0  0  0  0
 42 43  1  0  0  0  0
 42 44  2  0  0  0  0
 44 45  1  0  0  0  0
 46 47  1  0  0  0  0
 46 48  1  0  0  0  0
 46 49  1  0  0  0  0
M  END
$$$$
