46
0 1 C19F2H18N4O2S
N                    -3.858984564884    -2.524651427383    -3.022073232234
S                    -3.328954463428    -1.082129437939    -2.824226758630
O                    -1.877612936711    -0.919960049544    -3.008543562694
C                    -4.182330748105     0.123965915930    -3.894919280018
H                    -3.766674098489     1.118026507406    -3.719617538916
H                    -3.982460256338    -0.197308051668    -4.918828720616
H                    -5.255917519579     0.104982895313    -3.692314063928
C                    -3.747917200586    -0.385513101706    -1.148367052117
C                    -2.985541107780    -1.132428059903    -0.099212053786
C                    -1.795623606134    -0.615101428901     0.433420017306
H                    -1.402392311932     0.342967333345     0.108208981844
C                    -1.117418773839    -1.375160461080     1.384850907623
H                    -0.194949741678    -1.001720828483     1.826789646126
N                    -1.510884440627    -2.586019949751     1.799286845958
C                    -2.639627199307    -3.078225321455     1.281636416713
N                    -3.054788152755    -4.363179859199     1.659909744456
C                    -2.548354343587    -5.097731999480     2.742510573454
N                    -2.371250939294    -4.453741596000     3.903268071829
C                    -1.925559223096    -5.164754092414     4.940905348249
H                    -1.772905509886    -4.641126151481     5.883099524439
C                    -1.682590168578    -6.531660950081     4.868513514238
F                    -1.269274096223    -7.179545616280     5.991835794331
C                    -1.885269739358    -7.238837541438     3.677764421189
C                    -1.630411485820    -8.694025789594     3.560390169433
C                    -0.445578768614    -9.254448041122     4.065508534015
H                     0.269906905095    -8.610385997631     4.565626311543
C                    -0.153593516060   -10.610456917476     3.922457619727
H                     0.768088407334   -11.038800119751     4.302576357741
C                    -1.078476337150   -11.414986256156     3.265088764387
F                    -0.812547987412   -12.736159407316     3.113524531802
C                    -2.271641071248   -10.912905051256     2.759941496145
H                    -2.982307305846   -11.559168122687     2.255520888757
C                    -2.543696494028    -9.550703547387     2.910004003182
O                    -3.725065074334    -9.073449098793     2.377924170843
C                    -4.750914049953    -8.821098467886     3.351062185514
H                    -5.614824866450    -8.451248350144     2.795984047011
H                    -4.433328055921    -8.066166739536     4.078472666579
H                    -5.016326330200    -9.747041638395     3.875361472407
C                    -2.316689154593    -6.473215401537     2.587834916457
H                    -2.462987142580    -6.950964985372     1.625058419117
H                    -3.468816026667    -4.911638689311     0.917768171078
C                    -3.421179181948    -2.378774632706     0.342672883269
H                    -4.340534127935    -2.815673016486    -0.036146015594
H                    -3.478310439513     0.672842213944    -1.173514002968
H                    -4.831157148652    -0.492343058323    -1.038159860083
H                    -4.881074175638    -2.546762806083    -3.029251886229
