46
0 1 C19F2H18N4O2S
N                    -3.587715155474    -2.526655776029    -3.221793644053
S                    -3.078762155860    -1.094411180614    -2.922269907584
O                    -1.616999457665    -0.928437754214    -2.976796962384
C                    -3.839409394968     0.155547439409    -4.012262410863
H                    -3.440564842921     1.140850174508    -3.763744869790
H                    -3.554127330685    -0.125957416153    -5.027618627910
H                    -4.926215727554     0.131367157736    -3.901478468587
C                    -3.639678129726    -0.464623665923    -1.261715900457
C                    -2.966436466365    -1.252556430327    -0.182268406707
C                    -1.822352410546    -0.759759380292     0.462431633996
H                    -1.402484674523     0.207244099938     0.203837188263
C                    -1.224929183555    -1.555233099869     1.438379230399
H                    -0.340580887002    -1.201571952364     1.966216977129
N                    -1.653460095570    -2.777909253241     1.776818531938
C                    -2.739161649017    -3.245860433090     1.153994290824
N                    -3.186708136631    -4.539588607276     1.460791171171
C                    -2.746809381567    -5.290296411380     2.563991895294
N                    -2.734895094255    -4.680933824660     3.756541143379
C                    -2.347937894400    -5.399715886093     4.811690666444
H                    -2.321245433879    -4.902411246368     5.779773715810
C                    -1.996518013469    -6.741860393613     4.719904810460
F                    -1.608878222638    -7.389754791381     5.852013395497
C                    -2.017917532402    -7.413096946313     3.491907589731
C                    -1.643012317061    -8.840908079181     3.359455242998
C                    -2.149811740056    -9.795313072425     4.257137133060
H                    -2.800399110066    -9.468445315410     5.061335000426
C                    -1.857511425974   -11.153028360072     4.131962798635
H                    -2.260005512156   -11.889313629803     4.819962791060
C                    -1.030594366963   -11.551807315312     3.086994830315
F                    -0.735017525179   -12.868064135012     2.946405621953
C                    -0.491395709405   -10.646660682180     2.181235536976
H                     0.156292007620   -10.977882816207     1.376318194982
C                    -0.800061675410    -9.290709068091     2.319903075340
O                    -0.276973246519    -8.421267032091     1.386347166770
C                     0.824654202006    -7.625542879399     1.856797042032
H                     1.112233398102    -6.981772597764     1.024304413176
H                     1.665685846004    -8.270696377346     2.137674177003
H                     0.533557586159    -7.006205360468     2.711448707287
C                    -2.402186586112    -6.638476528952     2.389418862961
H                    -2.402054418812    -7.081861011345     1.399730931570
H                    -3.505643823596    -5.078101731633     0.665990379794
C                    -3.439692473122    -2.511131018443     0.179161104585
H                    -4.327716709753    -2.929548237398    -0.285342967288
H                    -3.372072298813     0.593806999270    -1.222305216022
H                    -4.727978583582    -0.575359109107    -1.247449251107
H                    -4.606111987731    -2.548981931883    -3.308590343209
