
  -OEChem-12122420533D

 46 48  0     1  0  0  0  0  0999 V2000
   -6.7028   -1.1865   -0.8757 N   0  0  0  0  0  0  0  0  0  0  0  0
   -5.4947   -1.1960   -1.8371 S   0  0  1  0  0  0  0  0  0  0  0  0
   -5.1217   -2.5287   -2.3493 O   0  0  0  0  0  0  0  0  0  0  0  0
   -5.7292   -0.1247   -3.2958 C   0  0  0  0  0  0  0  0  0  0  0  0
   -4.8391   -0.1614   -3.9274 H   0  0  0  0  0  0  0  0  0  0  0  0
   -6.5892   -0.5399   -3.8245 H   0  0  0  0  0  0  0  0  0  0  0  0
   -5.9435    0.8959   -2.9702 H   0  0  0  0  0  0  0  0  0  0  0  0
   -3.9691   -0.4143   -1.1110 C   0  0  0  0  0  0  0  0  0  0  0  0
   -3.5796   -1.1285    0.1461 C   0  0  0  0  0  0  0  0  0  0  0  0
   -3.8031   -0.5531    1.4057 C   0  0  0  0  0  0  0  0  0  0  0  0
   -4.2397    0.4364    1.5075 H   0  0  0  0  0  0  0  0  0  0  0  0
   -3.4409   -1.2855    2.5359 C   0  0  0  0  0  0  0  0  0  0  0  0
   -3.5934   -0.8684    3.5303 H   0  0  0  0  0  0  0  0  0  0  0  0
   -2.9178   -2.5159    2.4971 N   0  0  0  0  0  0  0  0  0  0  0  0
   -2.7085   -3.0606    1.2937 C   0  0  0  0  0  0  0  0  0  0  0  0
   -2.1982   -4.3602    1.2221 N   0  0  0  0  0  0  0  0  0  0  0  0
   -1.6272   -5.0866    2.2780 C   0  0  0  0  0  0  0  0  0  0  0  0
   -0.7963   -4.4398    3.1050 N   0  0  0  0  0  0  0  0  0  0  0  0
   -0.2320   -5.1450    4.0877 C   0  0  0  0  0  0  0  0  0  0  0  0
    0.4374   -4.6188    4.7661 H   0  0  0  0  0  0  0  0  0  0  0  0
   -0.4431   -6.5090    4.2527 C   0  0  0  0  0  0  0  0  0  0  0  0
    0.2081   -7.1512    5.2603 F   0  0  0  0  0  0  0  0  0  0  0  0
   -1.2819   -7.2198    3.3863 C   0  0  0  0  0  0  0  0  0  0  0  0
   -1.5348   -8.6725    3.5349 C   0  0  0  0  0  0  0  0  0  0  0  0
   -1.8434   -9.2188    4.7916 C   0  0  0  0  0  0  0  0  0  0  0  0
   -1.8700   -8.5657    5.6575 H   0  0  0  0  0  0  0  0  0  0  0  0
   -2.1376  -10.5722    4.9533 C   0  0  0  0  0  0  0  0  0  0  0  0
   -2.3879  -10.9899    5.9230 H   0  0  0  0  0  0  0  0  0  0  0  0
   -2.1112  -11.3884    3.8272 C   0  0  0  0  0  0  0  0  0  0  0  0
   -2.3964  -12.7073    3.9628 F   0  0  0  0  0  0  0  0  0  0  0  0
   -1.7978  -10.9004    2.5645 C   0  0  0  0  0  0  0  0  0  0  0  0
   -1.7771  -11.5557    1.7000 H   0  0  0  0  0  0  0  0  0  0  0  0
   -1.5100   -9.5405    2.4229 C   0  0  0  0  0  0  0  0  0  0  0  0
   -1.2250   -9.0764    1.1544 O   0  0  0  0  0  0  0  0  0  0  0  0
    0.1705   -8.8354    0.9140 C   0  0  0  0  0  0  0  0  0  0  0  0
    0.2462   -8.4744   -0.1132 H   0  0  0  0  0  0  0  0  0  0  0  0
    0.7431   -9.7643    1.0234 H   0  0  0  0  0  0  0  0  0  0  0  0
    0.5677   -8.0776    1.5982 H   0  0  0  0  0  0  0  0  0  0  0  0
   -1.8959   -6.4603    2.3832 C   0  0  0  0  0  0  0  0  0  0  0  0
   -2.5837   -6.9406    1.6956 H   0  0  0  0  0  0  0  0  0  0  0  0
   -2.5141   -4.9054    0.4312 H   0  0  0  0  0  0  0  0  0  0  0  0
   -3.0100   -2.3974    0.0879 C   0  0  0  0  0  0  0  0  0  0  0  0
   -2.8224   -2.8772   -0.8680 H   0  0  0  0  0  0  0  0  0  0  0  0
   -3.2076   -0.4943   -1.8912 H   0  0  0  0  0  0  0  0  0  0  0  0
   -4.2038    0.6384   -0.9301 H   0  0  0  0  0  0  0  0  0  0  0  0
   -6.8242   -0.2819   -0.4164 H   0  0  0  0  0  0  0  0  0  0  0  0
  1  2  2  0  0  0  0
  1 46  1  0  0  0  0
  2  3  2  0  0  0  0
  2  4  1  0  0  0  0
  2  8  1  0  0  0  0
  4  5  1  0  0  0  0
  4  6  1  0  0  0  0
  4  7  1  0  0  0  0
  8  9  1  0  0  0  0
  8 44  1  0  0  0  0
  8 45  1  0  0  0  0
  9 10  1  0  0  0  0
  9 42  2  0  0  0  0
 10 11  1  0  0  0  0
 10 12  2  0  0  0  0
 12 13  1  0  0  0  0
 12 14  1  0  0  0  0
 14 15  2  0  0  0  0
 15 16  1  0  0  0  0
 15 42  1  0  0  0  0
 16 17  1  0  0  0  0
 16 41  1  0  0  0  0
 17 18  1  0  0  0  0
 17 39  2  0  0  0  0
 18 19  2  0  0  0  0
 19 20  1  0  0  0  0
 19 21  1  0  0  0  0
 21 22  1  0  0  0  0
 21 23  2  0  0  0  0
 23 24  1  0  0  0  0
 23 39  1  0  0  0  0
 24 25  2  0  0  0  0
 24 33  1  0  0  0  0
 25 26  1  0  0  0  0
 25 27  1  0  0  0  0
 27 28  1  0  0  0  0
 27 29  2  0  0  0  0
 29 30  1  0  0  0  0
 29 31  1  0  0  0  0
 31 32  1  0  0  0  0
 31 33  2  0  0  0  0
 33 34  1  0  0  0  0
 34 35  1  0  0  0  0
 35 36  1  0  0  0  0
 35 37  1  0  0  0  0
 35 38  1  0  0  0  0
 39 40  1  0  0  0  0
 42 43  1  0  0  0  0
M  END
$$$$
