
  -OEChem-12122420533D

 48 51  0     1  0  0  0  0  0999 V2000
   -0.2336    4.6049    2.1560 N   0  0  0  0  0  0  0  0  0  0  0  0
   -0.9679    4.2508    0.8377 S   0  0  1  0  0  0  0  0  0  0  0  0
   -1.4514    2.8577    0.7465 O   0  0  0  0  0  0  0  0  0  0  0  0
   -2.4093    5.3135    0.5192 C   0  0  0  0  0  0  0  0  0  0  0  0
   -2.9068    4.9808   -0.3943 H   0  0  0  0  0  0  0  0  0  0  0  0
   -3.0672    5.1787    1.3794 H   0  0  0  0  0  0  0  0  0  0  0  0
   -2.0924    6.3538    0.4441 H   0  0  0  0  0  0  0  0  0  0  0  0
    0.0653    4.6268   -0.6311 C   0  0  0  0  0  0  0  0  0  0  0  0
    1.2593    3.6762   -0.6849 C   0  0  0  0  0  0  0  0  0  0  0  0
    2.2501    4.1202   -1.7755 C   0  0  0  0  0  0  0  0  0  0  0  0
    3.6296    3.8756   -1.4120 O   0  0  0  0  0  0  0  0  0  0  0  0
    4.1504    4.6819   -0.4617 C   0  0  0  0  0  0  0  0  0  0  0  0
    3.3804    5.5950    0.0833 N   0  0  0  0  0  0  0  0  0  0  0  0
    3.9787    6.3407    1.0415 N   0  0  0  0  0  0  0  0  0  0  0  0
    5.2937    6.2161    1.4879 C   0  0  0  0  0  0  0  0  0  0  0  0
    5.5356    7.0631    2.4961 N   0  0  0  0  0  0  0  0  0  0  0  0
    4.3651    7.7225    2.7003 C   0  0  0  0  0  0  0  0  0  0  0  0
    4.2666    8.4880    3.4600 H   0  0  0  0  0  0  0  0  0  0  0  0
    3.3667    7.3029    1.8164 C   0  0  0  0  0  0  0  0  0  0  0  0
    1.9723    7.6670    1.7033 C   0  0  0  0  0  0  0  0  0  0  0  0
    0.9978    7.7886    2.6541 C   0  0  0  0  0  0  0  0  0  0  0  0
    1.1109    7.5758    3.7079 H   0  0  0  0  0  0  0  0  0  0  0  0
   -0.1943    8.2149    1.9660 C   0  0  0  0  0  0  0  0  0  0  0  0
    0.1607    8.3247    0.6075 C   0  0  0  0  0  0  0  0  0  0  0  0
   -0.7211    8.7261   -0.3925 C   0  0  0  0  0  0  0  0  0  0  0  0
   -0.4091    8.8087   -1.4286 H   0  0  0  0  0  0  0  0  0  0  0  0
   -2.0206    9.0374    0.0212 C   0  0  0  0  0  0  0  0  0  0  0  0
   -2.7463    9.3705   -0.7152 H   0  0  0  0  0  0  0  0  0  0  0  0
   -2.4169    8.9216    1.3696 C   0  0  0  0  0  0  0  0  0  0  0  0
   -3.4348    9.1588    1.6648 H   0  0  0  0  0  0  0  0  0  0  0  0
   -1.5173    8.5019    2.3491 C   0  0  0  0  0  0  0  0  0  0  0  0
   -1.8978    8.3874    3.6656 O   0  0  0  0  0  0  0  0  0  0  0  0
   -2.2977    7.0524    4.0356 C   0  0  0  0  0  0  0  0  0  0  0  0
   -2.4322    7.0628    5.1186 H   0  0  0  0  0  0  0  0  0  0  0  0
   -1.5408    6.3114    3.7559 H   0  0  0  0  0  0  0  0  0  0  0  0
   -3.2485    6.7942    3.5520 H   0  0  0  0  0  0  0  0  0  0  0  0
    1.4806    7.9827    0.4389 O   0  0  0  0  0  0  0  0  0  0  0  0
    6.0934    5.2345    0.8563 C   0  0  0  0  0  0  0  0  0  0  0  0
    7.1240    5.1119    1.1720 H   0  0  0  0  0  0  0  0  0  0  0  0
    5.5251    4.4593   -0.1203 C   0  0  0  0  0  0  0  0  0  0  0  0
    6.0705    3.6806   -0.6413 H   0  0  0  0  0  0  0  0  0  0  0  0
    2.1403    5.1856   -1.9969 H   0  0  0  0  0  0  0  0  0  0  0  0
    2.1172    3.5519   -2.6970 H   0  0  0  0  0  0  0  0  0  0  0  0
    0.9197    2.6532   -0.8633 H   0  0  0  0  0  0  0  0  0  0  0  0
    1.7581    3.6874    0.2850 H   0  0  0  0  0  0  0  0  0  0  0  0
   -0.5823    4.5351   -1.5086 H   0  0  0  0  0  0  0  0  0  0  0  0
    0.3941    5.6648   -0.5254 H   0  0  0  0  0  0  0  0  0  0  0  0
    0.3207    5.4578    2.0575 H   0  0  0  0  0  0  0  0  0  0  0  0
  1  2  2  0  0  0  0
  1 48  1  0  0  0  0
  2  3  2  0  0  0  0
  2  4  1  0  0  0  0
  2  8  1  0  0  0  0
  4  5  1  0  0  0  0
  4  6  1  0  0  0  0
  4  7  1  0  0  0  0
  8  9  1  0  0  0  0
  8 46  1  0  0  0  0
  8 47  1  0  0  0  0
  9 10  1  0  0  0  0
  9 44  1  0  0  0  0
  9 45  1  0  0  0  0
 10 11  1  0  0  0  0
 10 42  1  0  0  0  0
 10 43  1  0  0  0  0
 11 12  1  0  0  0  0
 12 13  2  0  0  0  0
 12 40  1  0  0  0  0
 13 14  1  0  0  0  0
 14 15  1  0  0  0  0
 14 19  1  0  0  0  0
 15 16  2  0  0  0  0
 15 38  1  0  0  0  0
 16 17  1  0  0  0  0
 17 18  1  0  0  0  0
 17 19  2  0  0  0  0
 19 20  1  0  0  0  0
 20 21  2  0  0  0  0
 20 37  1  0  0  0  0
 21 22  1  0  0  0  0
 21 23  1  0  0  0  0
 23 24  1  0  0  0  0
 23 31  2  0  0  0  0
 24 25  2  0  0  0  0
 24 37  1  0  0  0  0
 25 26  1  0  0  0  0
 25 27  1  0  0  0  0
 27 28  1  0  0  0  0
 27 29  2  0  0  0  0
 29 30  1  0  0  0  0
 29 31  1  0  0  0  0
 31 32  1  0  0  0  0
 32 33  1  0  0  0  0
 33 34  1  0  0  0  0
 33 35  1  0  0  0  0
 33 36  1  0  0  0  0
 38 39  1  0  0  0  0
 38 40  2  0  0  0  0
 40 41  1  0  0  0  0
M  END
$$$$
