
  -OEChem-12102412493D

 46 48  0     1  0  0  0  0  0999 V2000
   -3.5877   -2.5267   -3.2218 N   0  0  0  0  0  0  0  0  0  0  0  0
   -3.0788   -1.0944   -2.9223 S   0  0  1  0  0  0  0  0  0  0  0  0
   -1.6170   -0.9284   -2.9768 O   0  0  0  0  0  0  0  0  0  0  0  0
   -3.8394    0.1555   -4.0123 C   0  0  0  0  0  0  0  0  0  0  0  0
   -3.4406    1.1409   -3.7637 H   0  0  0  0  0  0  0  0  0  0  0  0
   -3.5541   -0.1260   -5.0276 H   0  0  0  0  0  0  0  0  0  0  0  0
   -4.9262    0.1314   -3.9015 H   0  0  0  0  0  0  0  0  0  0  0  0
   -3.6397   -0.4646   -1.2617 C   0  0  0  0  0  0  0  0  0  0  0  0
   -2.9664   -1.2526   -0.1823 C   0  0  0  0  0  0  0  0  0  0  0  0
   -1.8224   -0.7598    0.4624 C   0  0  0  0  0  0  0  0  0  0  0  0
   -1.4025    0.2072    0.2038 H   0  0  0  0  0  0  0  0  0  0  0  0
   -1.2249   -1.5552    1.4384 C   0  0  0  0  0  0  0  0  0  0  0  0
   -0.3406   -1.2016    1.9662 H   0  0  0  0  0  0  0  0  0  0  0  0
   -1.6535   -2.7779    1.7768 N   0  0  0  0  0  0  0  0  0  0  0  0
   -2.7392   -3.2459    1.1540 C   0  0  0  0  0  0  0  0  0  0  0  0
   -3.1867   -4.5396    1.4608 N   0  0  0  0  0  0  0  0  0  0  0  0
   -2.7468   -5.2903    2.5640 C   0  0  0  0  0  0  0  0  0  0  0  0
   -2.7349   -4.6809    3.7565 N   0  0  0  0  0  0  0  0  0  0  0  0
   -2.3479   -5.3997    4.8117 C   0  0  0  0  0  0  0  0  0  0  0  0
   -2.3212   -4.9024    5.7798 H   0  0  0  0  0  0  0  0  0  0  0  0
   -1.9965   -6.7419    4.7199 C   0  0  0  0  0  0  0  0  0  0  0  0
   -1.6089   -7.3898    5.8520 F   0  0  0  0  0  0  0  0  0  0  0  0
   -2.0179   -7.4131    3.4919 C   0  0  0  0  0  0  0  0  0  0  0  0
   -1.6430   -8.8409    3.3595 C   0  0  0  0  0  0  0  0  0  0  0  0
   -2.1498   -9.7953    4.2571 C   0  0  0  0  0  0  0  0  0  0  0  0
   -2.8004   -9.4684    5.0613 H   0  0  0  0  0  0  0  0  0  0  0  0
   -1.8575  -11.1530    4.1320 C   0  0  0  0  0  0  0  0  0  0  0  0
   -2.2600  -11.8893    4.8200 H   0  0  0  0  0  0  0  0  0  0  0  0
   -1.0306  -11.5518    3.0870 C   0  0  0  0  0  0  0  0  0  0  0  0
   -0.7350  -12.8681    2.9464 F   0  0  0  0  0  0  0  0  0  0  0  0
   -0.4914  -10.6467    2.1812 C   0  0  0  0  0  0  0  0  0  0  0  0
    0.1563  -10.9779    1.3763 H   0  0  0  0  0  0  0  0  0  0  0  0
   -0.8001   -9.2907    2.3199 C   0  0  0  0  0  0  0  0  0  0  0  0
   -0.2770   -8.4213    1.3863 O   0  0  0  0  0  0  0  0  0  0  0  0
    0.8247   -7.6255    1.8568 C   0  0  0  0  0  0  0  0  0  0  0  0
    1.1122   -6.9818    1.0243 H   0  0  0  0  0  0  0  0  0  0  0  0
    1.6657   -8.2707    2.1377 H   0  0  0  0  0  0  0  0  0  0  0  0
    0.5336   -7.0062    2.7114 H   0  0  0  0  0  0  0  0  0  0  0  0
   -2.4022   -6.6385    2.3894 C   0  0  0  0  0  0  0  0  0  0  0  0
   -2.4021   -7.0819    1.3997 H   0  0  0  0  0  0  0  0  0  0  0  0
   -3.5056   -5.0781    0.6660 H   0  0  0  0  0  0  0  0  0  0  0  0
   -3.4397   -2.5111    0.1792 C   0  0  0  0  0  0  0  0  0  0  0  0
   -4.3277   -2.9295   -0.2853 H   0  0  0  0  0  0  0  0  0  0  0  0
   -3.3721    0.5938   -1.2223 H   0  0  0  0  0  0  0  0  0  0  0  0
   -4.7280   -0.5754   -1.2474 H   0  0  0  0  0  0  0  0  0  0  0  0
   -4.6061   -2.5490   -3.3086 H   0  0  0  0  0  0  0  0  0  0  0  0
  1  2  2  0  0  0  0
  1 46  1  0  0  0  0
  2  3  2  0  0  0  0
  2  4  1  0  0  0  0
  2  8  1  0  0  0  0
  4  5  1  0  0  0  0
  4  6  1  0  0  0  0
  4  7  1  0  0  0  0
  8  9  1  0  0  0  0
  8 44  1  0  0  0  0
  8 45  1  0  0  0  0
  9 10  1  0  0  0  0
  9 42  2  0  0  0  0
 10 11  1  0  0  0  0
 10 12  2  0  0  0  0
 12 13  1  0  0  0  0
 12 14  1  0  0  0  0
 14 15  2  0  0  0  0
 15 16  1  0  0  0  0
 15 42  1  0  0  0  0
 16 17  1  0  0  0  0
 16 41  1  0  0  0  0
 17 18  1  0  0  0  0
 17 39  2  0  0  0  0
 18 19  2  0  0  0  0
 19 20  1  0  0  0  0
 19 21  1  0  0  0  0
 21 22  1  0  0  0  0
 21 23  2  0  0  0  0
 23 24  1  0  0  0  0
 23 39  1  0  0  0  0
 24 25  2  0  0  0  0
 24 33  1  0  0  0  0
 25 26  1  0  0  0  0
 25 27  1  0  0  0  0
 27 28  1  0  0  0  0
 27 29  2  0  0  0  0
 29 30  1  0  0  0  0
 29 31  1  0  0  0  0
 31 32  1  0  0  0  0
 31 33  2  0  0  0  0
 33 34  1  0  0  0  0
 34 35  1  0  0  0  0
 35 36  1  0  0  0  0
 35 37  1  0  0  0  0
 35 38  1  0  0  0  0
 39 40  1  0  0  0  0
 42 43  1  0  0  0  0
M  END
$$$$
