48
0 1 C19H20N4O4S
N                     1.025657820934     4.293415204827    -6.354544670906
S                     2.440275322374     3.873029012724    -5.880517324862
O                     2.629910971250     2.417192416649    -5.740297958453
C                     3.764217044032     4.504573665635    -6.964436704716
H                     4.733261719517     4.178242007469    -6.581748409171
H                     3.573346470174     4.065676653615    -7.945516896721
H                     3.708358251280     5.594498503024    -7.018698636442
C                     2.905620457922     4.643180306286    -4.280377659509
C                     1.965640221596     4.143466899524    -3.184593867295
C                     2.264372917511     4.788907126850    -1.841779442593
O                     3.608944496308     4.405989136644    -1.470116712985
C                     4.079499196283     4.876795333381    -0.294324596833
N                     3.320418914397     5.678725856320     0.412826816273
N                     3.874397486158     6.097387867360     1.579087281379
C                     5.152469227593     5.772225140486     2.045097121713
N                     5.402777303259     6.375810651970     3.213179607457
C                     4.282636923400     7.086539250102     3.495670177285
H                     4.191874702521     7.664884807840     4.406917662729
C                     3.302277057999     6.945292062796     2.504347479904
C                     1.995540088692     7.547492235969     2.413484292013
C                     1.510314590856     8.693072926650     2.989271314980
H                     2.076515087100     9.385674189006     3.596455919428
C                     0.122176746614     8.777043877711     2.619353076256
C                    -0.132979878203     7.643539603656     1.822144189897
C                    -1.374417787324     7.342917316465     1.270962335570
H                    -1.529301844890     6.453485516080     0.668707905858
C                    -2.406832037049     8.242418253188     1.550281403497
H                    -3.400263854871     8.052728151977     1.153911331713
C                    -2.190762817018     9.393523426946     2.335327638512
H                    -3.006841077896    10.079705531607     2.542394739257
C                    -0.935638125642     9.672542123305     2.871483474191
O                    -0.752337955668    10.785890524248     3.666604280195
C                    -0.041763332229    11.852536729138     3.025105010185
H                     0.059247246726    12.646877554392     3.767277910853
H                    -0.603584521923    12.225700173565     2.159579859230
H                     0.953406647518    11.532042991002     2.694286146235
O                     1.010227505606     6.892426978986     1.694569793400
C                     5.930001760062     4.903586231447     1.247686311914
H                     6.922036264292     4.625868130961     1.587777387198
C                     5.396862504364     4.445611343794     0.071243577673
H                     5.928263624596     3.771597579132    -0.591084017389
H                     1.569326856441     4.443830493144    -1.070563799032
H                     2.201339333758     5.881312265452    -1.883733379162
H                     2.051360420844     3.056764883642    -3.098709152143
H                     0.928592617925     4.370649698246    -3.452339305739
H                     3.942350803980     4.366994290244    -4.073396825233
H                     2.835982393323     5.728931073214    -4.411878175193
H                     0.956026392217     5.305898365336    -6.478878703671
