
  -OEChem-12122420533D

 46 48  0     1  0  0  0  0  0999 V2000
   -6.8669   -1.1211   -0.6561 N   0  0  0  0  0  0  0  0  0  0  0  0
   -5.7418   -1.2085   -1.7106 S   0  0  1  0  0  0  0  0  0  0  0  0
   -5.4818   -2.5664   -2.2267 O   0  0  0  0  0  0  0  0  0  0  0  0
   -6.0361   -0.1439   -3.1631 C   0  0  0  0  0  0  0  0  0  0  0  0
   -5.2038   -0.2374   -3.8638 H   0  0  0  0  0  0  0  0  0  0  0  0
   -6.9578   -0.5168   -3.6138 H   0  0  0  0  0  0  0  0  0  0  0  0
   -6.1672    0.8909   -2.8381 H   0  0  0  0  0  0  0  0  0  0  0  0
   -4.1242   -0.5005   -1.1208 C   0  0  0  0  0  0  0  0  0  0  0  0
   -3.6636   -1.2344    0.1002 C   0  0  0  0  0  0  0  0  0  0  0  0
   -3.7510   -0.6530    1.3737 C   0  0  0  0  0  0  0  0  0  0  0  0
   -4.1302    0.3556    1.5119 H   0  0  0  0  0  0  0  0  0  0  0  0
   -3.3282   -1.4052    2.4694 C   0  0  0  0  0  0  0  0  0  0  0  0
   -3.3746   -0.9840    3.4727 H   0  0  0  0  0  0  0  0  0  0  0  0
   -2.8703   -2.6594    2.3872 N   0  0  0  0  0  0  0  0  0  0  0  0
   -2.7899   -3.2091    1.1701 C   0  0  0  0  0  0  0  0  0  0  0  0
   -2.3502   -4.5310    1.0579 N   0  0  0  0  0  0  0  0  0  0  0  0
   -1.7095   -5.2730    2.0619 C   0  0  0  0  0  0  0  0  0  0  0  0
   -0.7581   -4.6601    2.7774 N   0  0  0  0  0  0  0  0  0  0  0  0
   -0.1294   -5.3790    3.7094 C   0  0  0  0  0  0  0  0  0  0  0  0
    0.6331   -4.8787    4.3040 H   0  0  0  0  0  0  0  0  0  0  0  0
   -0.4002   -6.7240    3.9323 C   0  0  0  0  0  0  0  0  0  0  0  0
    0.2902   -7.3717    4.9096 F   0  0  0  0  0  0  0  0  0  0  0  0
   -1.3732   -7.3998    3.1860 C   0  0  0  0  0  0  0  0  0  0  0  0
   -1.6845   -8.8332    3.3988 C   0  0  0  0  0  0  0  0  0  0  0  0
   -0.6490   -9.7757    3.5132 C   0  0  0  0  0  0  0  0  0  0  0  0
    0.3801   -9.4358    3.4667 H   0  0  0  0  0  0  0  0  0  0  0  0
   -0.9059  -11.1380    3.6637 C   0  0  0  0  0  0  0  0  0  0  0  0
   -0.1039  -11.8649    3.7399 H   0  0  0  0  0  0  0  0  0  0  0  0
   -2.2324  -11.5539    3.7091 C   0  0  0  0  0  0  0  0  0  0  0  0
   -2.5040  -12.8748    3.8535 F   0  0  0  0  0  0  0  0  0  0  0  0
   -3.2929  -10.6613    3.6152 C   0  0  0  0  0  0  0  0  0  0  0  0
   -4.3208  -11.0058    3.6580 H   0  0  0  0  0  0  0  0  0  0  0  0
   -3.0153   -9.3005    3.4595 C   0  0  0  0  0  0  0  0  0  0  0  0
   -4.0879   -8.4428    3.3367 O   0  0  0  0  0  0  0  0  0  0  0  0
   -4.3733   -7.6674    4.5133 C   0  0  0  0  0  0  0  0  0  0  0  0
   -5.2228   -7.0314    4.2601 H   0  0  0  0  0  0  0  0  0  0  0  0
   -3.5206   -7.0406    4.7947 H   0  0  0  0  0  0  0  0  0  0  0  0
   -4.6373   -8.3275    5.3483 H   0  0  0  0  0  0  0  0  0  0  0  0
   -2.0438   -6.6255    2.2307 C   0  0  0  0  0  0  0  0  0  0  0  0
   -2.8383   -7.0722    1.6431 H   0  0  0  0  0  0  0  0  0  0  0  0
   -2.7662   -5.0650    0.3067 H   0  0  0  0  0  0  0  0  0  0  0  0
   -3.1612   -2.5283   -0.0055 C   0  0  0  0  0  0  0  0  0  0  0  0
   -3.0769   -3.0131   -0.9734 H   0  0  0  0  0  0  0  0  0  0  0  0
   -3.4361   -0.6161   -1.9622 H   0  0  0  0  0  0  0  0  0  0  0  0
   -4.2927    0.5619   -0.9241 H   0  0  0  0  0  0  0  0  0  0  0  0
   -6.9093   -0.2011   -0.2135 H   0  0  0  0  0  0  0  0  0  0  0  0
  1  2  2  0  0  0  0
  1 46  1  0  0  0  0
  2  3  2  0  0  0  0
  2  4  1  0  0  0  0
  2  8  1  0  0  0  0
  4  5  1  0  0  0  0
  4  6  1  0  0  0  0
  4  7  1  0  0  0  0
  8  9  1  0  0  0  0
  8 44  1  0  0  0  0
  8 45  1  0  0  0  0
  9 10  1  0  0  0  0
  9 42  2  0  0  0  0
 10 11  1  0  0  0  0
 10 12  2  0  0  0  0
 12 13  1  0  0  0  0
 12 14  1  0  0  0  0
 14 15  2  0  0  0  0
 15 16  1  0  0  0  0
 15 42  1  0  0  0  0
 16 17  1  0  0  0  0
 16 41  1  0  0  0  0
 17 18  1  0  0  0  0
 17 39  2  0  0  0  0
 18 19  2  0  0  0  0
 19 20  1  0  0  0  0
 19 21  1  0  0  0  0
 21 22  1  0  0  0  0
 21 23  2  0  0  0  0
 23 24  1  0  0  0  0
 23 39  1  0  0  0  0
 24 25  2  0  0  0  0
 24 33  1  0  0  0  0
 25 26  1  0  0  0  0
 25 27  1  0  0  0  0
 27 28  1  0  0  0  0
 27 29  2  0  0  0  0
 29 30  1  0  0  0  0
 29 31  1  0  0  0  0
 31 32  1  0  0  0  0
 31 33  2  0  0  0  0
 33 34  1  0  0  0  0
 34 35  1  0  0  0  0
 35 36  1  0  0  0  0
 35 37  1  0  0  0  0
 35 38  1  0  0  0  0
 39 40  1  0  0  0  0
 42 43  1  0  0  0  0
M  END
$$$$
