
  -OEChem-12122420533D

 46 48  0     1  0  0  0  0  0999 V2000
   -3.5826   -2.4444   -3.1965 N   0  0  0  0  0  0  0  0  0  0  0  0
   -3.1753   -0.9770   -2.9121 S   0  0  1  0  0  0  0  0  0  0  0  0
   -1.7314   -0.7028   -2.9963 O   0  0  0  0  0  0  0  0  0  0  0  0
   -4.0494    0.2076   -3.9900 C   0  0  0  0  0  0  0  0  0  0  0  0
   -3.7241    1.2214   -3.7493 H   0  0  0  0  0  0  0  0  0  0  0  0
   -3.7607   -0.0530   -5.0100 H   0  0  0  0  0  0  0  0  0  0  0  0
   -5.1289    0.0995   -3.8603 H   0  0  0  0  0  0  0  0  0  0  0  0
   -3.7491   -0.3825   -1.2431 C   0  0  0  0  0  0  0  0  0  0  0  0
   -3.0203   -1.1329   -0.1733 C   0  0  0  0  0  0  0  0  0  0  0  0
   -1.8782   -0.5927    0.4353 C   0  0  0  0  0  0  0  0  0  0  0  0
   -1.4988    0.3845    0.1536 H   0  0  0  0  0  0  0  0  0  0  0  0
   -1.2282   -1.3550    1.4045 C   0  0  0  0  0  0  0  0  0  0  0  0
   -0.3427   -0.9652    1.9039 H   0  0  0  0  0  0  0  0  0  0  0  0
   -1.6059   -2.5866    1.7695 N   0  0  0  0  0  0  0  0  0  0  0  0
   -2.6898   -3.0996    1.1812 C   0  0  0  0  0  0  0  0  0  0  0  0
   -3.0846   -4.4041    1.5141 N   0  0  0  0  0  0  0  0  0  0  0  0
   -2.6296   -5.1284    2.6265 C   0  0  0  0  0  0  0  0  0  0  0  0
   -2.5648   -4.4889    3.7999 N   0  0  0  0  0  0  0  0  0  0  0  0
   -2.1599   -5.1845    4.8653 C   0  0  0  0  0  0  0  0  0  0  0  0
   -2.0826   -4.6538    5.8128 H   0  0  0  0  0  0  0  0  0  0  0  0
   -1.8520   -6.5401    4.8114 C   0  0  0  0  0  0  0  0  0  0  0  0
   -1.4249   -7.1593    5.9355 F   0  0  0  0  0  0  0  0  0  0  0  0
   -1.9523   -7.2447    3.6076 C   0  0  0  0  0  0  0  0  0  0  0  0
   -1.6325   -8.6879    3.4977 C   0  0  0  0  0  0  0  0  0  0  0  0
   -0.6661   -9.1296    2.5820 C   0  0  0  0  0  0  0  0  0  0  0  0
   -0.1471   -8.3960    1.9714 H   0  0  0  0  0  0  0  0  0  0  0  0
   -0.3311  -10.4799    2.4646 C   0  0  0  0  0  0  0  0  0  0  0  0
    0.4276  -10.8228    1.7687 H   0  0  0  0  0  0  0  0  0  0  0  0
   -0.9885  -11.3902    3.2856 C   0  0  0  0  0  0  0  0  0  0  0  0
   -0.6728  -12.7066    3.1934 F   0  0  0  0  0  0  0  0  0  0  0  0
   -1.9638  -11.0020    4.1973 C   0  0  0  0  0  0  0  0  0  0  0  0
   -2.4681  -11.7321    4.8217 H   0  0  0  0  0  0  0  0  0  0  0  0
   -2.2858   -9.6460    4.2983 C   0  0  0  0  0  0  0  0  0  0  0  0
   -3.2458   -9.2703    5.2106 O   0  0  0  0  0  0  0  0  0  0  0  0
   -4.5365   -9.0089    4.6419 C   0  0  0  0  0  0  0  0  0  0  0  0
   -5.1799   -8.7098    5.4711 H   0  0  0  0  0  0  0  0  0  0  0  0
   -4.9398   -9.9125    4.1674 H   0  0  0  0  0  0  0  0  0  0  0  0
   -4.4909   -8.1986    3.9053 H   0  0  0  0  0  0  0  0  0  0  0  0
   -2.3343   -6.4952    2.4893 C   0  0  0  0  0  0  0  0  0  0  0  0
   -2.4054   -6.9804    1.5190 H   0  0  0  0  0  0  0  0  0  0  0  0
   -3.4319   -4.9560    0.7413 H   0  0  0  0  0  0  0  0  0  0  0  0
   -3.4394   -2.4028    0.2150 C   0  0  0  0  0  0  0  0  0  0  0  0
   -4.3244   -2.8567   -0.2216 H   0  0  0  0  0  0  0  0  0  0  0  0
   -3.5404    0.6892   -1.2059 H   0  0  0  0  0  0  0  0  0  0  0  0
   -4.8293   -0.5538   -1.2152 H   0  0  0  0  0  0  0  0  0  0  0  0
   -4.5977   -2.5402   -3.2713 H   0  0  0  0  0  0  0  0  0  0  0  0
  1  2  2  0  0  0  0
  1 46  1  0  0  0  0
  2  3  2  0  0  0  0
  2  4  1  0  0  0  0
  2  8  1  0  0  0  0
  4  5  1  0  0  0  0
  4  6  1  0  0  0  0
  4  7  1  0  0  0  0
  8  9  1  0  0  0  0
  8 44  1  0  0  0  0
  8 45  1  0  0  0  0
  9 10  1  0  0  0  0
  9 42  2  0  0  0  0
 10 11  1  0  0  0  0
 10 12  2  0  0  0  0
 12 13  1  0  0  0  0
 12 14  1  0  0  0  0
 14 15  2  0  0  0  0
 15 16  1  0  0  0  0
 15 42  1  0  0  0  0
 16 17  1  0  0  0  0
 16 41  1  0  0  0  0
 17 18  1  0  0  0  0
 17 39  2  0  0  0  0
 18 19  2  0  0  0  0
 19 20  1  0  0  0  0
 19 21  1  0  0  0  0
 21 22  1  0  0  0  0
 21 23  2  0  0  0  0
 23 24  1  0  0  0  0
 23 39  1  0  0  0  0
 24 25  2  0  0  0  0
 24 33  1  0  0  0  0
 25 26  1  0  0  0  0
 25 27  1  0  0  0  0
 27 28  1  0  0  0  0
 27 29  2  0  0  0  0
 29 30  1  0  0  0  0
 29 31  1  0  0  0  0
 31 32  1  0  0  0  0
 31 33  2  0  0  0  0
 33 34  1  0  0  0  0
 34 35  1  0  0  0  0
 35 36  1  0  0  0  0
 35 37  1  0  0  0  0
 35 38  1  0  0  0  0
 39 40  1  0  0  0  0
 42 43  1  0  0  0  0
M  END
$$$$
