48
0 1 C19H20N4O4S
N                     2.627490043721     1.994892386370    -5.671574015734
S                     1.563082274308     1.691515879967    -4.587285799364
O                     0.187202497354     2.073856791841    -4.958084107415
C                     1.531695715589    -0.065062290426    -4.096669155232
H                     0.762599638427    -0.218212885161    -3.336919855766
H                     1.286481901927    -0.617925573589    -5.005405747729
H                     2.516404846151    -0.361025029399    -3.726887259017
C                     1.946500120015     2.491055627894    -2.980518618080
C                     1.896723182113     4.009009653801    -3.144375134550
C                     2.224819090640     4.731255492292    -1.848550746555
O                     3.582353918275     4.377823727232    -1.490529718595
C                     4.083811355537     4.933044764749    -0.364802497416
N                     3.312939333197     5.720294551879     0.345639583007
N                     3.901250070411     6.236938369651     1.454116786015
C                     5.204862142453     5.976270739901     1.889661994875
N                     5.463000183425     6.619064943588     3.034872986481
C                     4.324146874998     7.293503362378     3.330917091743
H                     4.251219926408     7.927712073288     4.205860618069
C                     3.321248563719     7.084510972063     2.374424785450
C                     1.972869507266     7.592888877759     2.331224726510
C                     1.170702278069     8.054422778493     3.342677970581
H                     1.421620489768     8.068213729281     4.394256727539
C                    -0.048135472529     8.501862435811     2.722170663092
C                     0.113871712467     8.267567961053     1.342237505123
C                    -0.843825874299     8.577494644137     0.382034042010
H                    -0.675129487185     8.385795855027    -0.672737907824
C                    -2.023776148554     9.158628632393     0.854001327631
H                    -2.803401719769     9.429617937723     0.147808360289
C                    -2.229162212053     9.401188744055     2.227703783785
H                    -3.153046676833     9.855008315286     2.574361540787
C                    -1.254480354621     9.076482755322     3.168476923369
O                    -1.460231899652     9.353167647888     4.505019804358
C                    -1.749576690220     8.198654276554     5.303626200104
H                    -1.857574715569     8.552611959092     6.330780825238
H                    -0.939646288464     7.461064680250     5.253891808049
H                    -2.684183385977     7.726348724984     4.975940573252
O                     1.347170172283     7.711902472888     1.102172718015
C                     5.995149168642     5.122426313313     1.089303567469
H                     7.013254789389     4.908515263159     1.396936082132
C                     5.440674652000     4.596220951274    -0.048420191036
H                     5.985880132371     3.938912432719    -0.716287102012
H                     1.553565487850     4.444891657496    -1.032444349325
H                     2.158801968731     5.816315963424    -1.970172989537
H                     0.892715715401     4.308692640859    -3.460414655809
H                     2.593541357117     4.321895194216    -3.927317636148
H                     1.201146165797     2.138658049732    -2.260565741485
H                     2.939862806127     2.151785623970    -2.672887092978
H                     3.564493330148     1.723337258308    -5.365518830166
