48
0 1 C19H20N4O4S
N                     0.930881346403     4.151288868962    -6.276598534683
S                     2.339906921131     3.679619044434    -5.834478590028
O                     2.473761587472     2.219169129063    -5.678792559107
C                     3.658367880332     4.244808880999    -6.960876040603
H                     4.622664095245     3.879237833061    -6.602484969602
H                     3.421028514613     3.807715479542    -7.932579942698
H                     3.648627236039     5.335725417649    -7.022604567519
C                     2.876113277358     4.448781242289    -4.256239775513
C                     1.969162927828     3.962923388269    -3.126756676748
C                     2.278766744020     4.653422250735    -1.809679574161
O                     3.642784050695     4.324019898926    -1.455900144966
C                     4.132959969587     4.882748820422    -0.327454741544
N                     3.358945417798     5.682834964986     0.365215790110
N                     3.936823860229     6.207018330319     1.475233999490
C                     5.232276316021     5.942463888665     1.930616760202
N                     5.479305958948     6.595576476449     3.072593732911
C                     4.340584500314     7.280031658909     3.346739151668
H                     4.259585159754     7.923366655246     4.214299814514
C                     3.349657505776     7.067402821012     2.379052265529
C                     2.004113495061     7.580874861710     2.309416830940
C                     1.176238376586     8.029091980894     3.305559263772
H                     1.397836424238     8.023891677069     4.363775511651
C                    -0.024698801255     8.488906717164     2.659404874758
C                     0.173457114015     8.274856064771     1.281006902211
C                    -0.759502321879     8.598928527838     0.301267407129
H                    -0.564588130326     8.420748792974    -0.751380023206
C                    -1.951597620585     9.173262192055     0.750755609973
H                    -2.713245771928     9.453708894283     0.028762945735
C                    -2.192487400256     9.395782447416     2.121970578688
H                    -3.125497748288     9.843849936452     2.451263972909
C                    -1.242229462976     9.056835093420     3.082663721225
O                    -1.482087743969     9.310963542792     4.417808653610
C                    -1.808026440430     8.144213551724     5.184566227885
H                    -1.939622361474     8.478687389750     6.215462278776
H                    -1.006226830642     7.397424897543     5.141183946772
H                    -2.739122309983     7.691067056862     4.821846667221
O                     1.411832738119     7.720902761222     1.065240498547
C                     6.025720519285     5.071877178857     1.150931661842
H                     7.036249539482     4.849284521470     1.476850741704
C                     5.482328894347     4.537436713440     0.011775547631
H                     6.027096475285     3.860060011729    -0.636124041365
H                     1.610782715544     4.308451209049    -1.014806227297
H                     2.180829943811     5.741712523221    -1.879006424351
H                     2.076195098932     2.880813265298    -3.013752799031
H                     0.922616624977     4.164308898515    -3.378713832648
H                     3.916517383283     4.162348450411    -4.084785195066
H                     2.813918153728     5.534666097430    -4.390048376978
H                     0.902413231752     5.162766434018    -6.423390086253
