46
0 1 C19F2H18N4O2S
N                    -6.779137202697    -1.285104935199    -0.884969476513
S                    -5.574068336198    -1.191775882050    -1.846013786339
O                    -5.161760753896    -2.475064686353    -2.447286084315
C                    -5.846886742555    -0.031747155946    -3.227722741316
H                    -4.956871466086     0.006248974304    -3.859241729133
H                    -6.692612347165    -0.439167887251    -3.784893452890
H                    -6.096303281624     0.955820685160    -2.832676543911
C                    -4.069968899931    -0.416827205482    -1.069114742492
C                    -3.668266801530    -1.197909643892     0.143803700620
C                    -3.895848695121    -0.699571510491     1.435233002001
H                    -4.340139933247     0.278734485862     1.595433972883
C                    -3.527131958545    -1.494215675997     2.520304543520
H                    -3.681148012025    -1.136956123459     3.537526141985
N                    -2.996825912341    -2.717279938518     2.408854197799
C                    -2.782640388552    -3.187566054600     1.174986920108
N                    -2.264187880116    -4.477745132486     1.030649792984
C                    -1.709696562097    -5.254740364874     2.061555072726
N                    -0.834920192267    -4.663894635983     2.883109899685
C                    -0.281816932531    -5.410507428701     3.841990366853
H                     0.430355160488    -4.926891312224     4.508323103135
C                    -0.555858468510    -6.765731000783     3.997937181595
F                     0.096148043652    -7.457577254263     4.959560517125
C                    -1.461923732113    -7.410956128157     3.150549039776
C                    -1.799958144292    -8.847662544724     3.286942428494
C                    -1.629759597706    -9.720484144521     2.202685909839
H                    -1.232024883731    -9.328648412335     1.270664731599
C                    -1.924904482716   -11.081363700217     2.304216913414
H                    -1.779588822261   -11.762681226950     1.472275274453
C                    -2.402548749703   -11.556892385508     3.521151853890
F                    -2.688716524342   -12.877489220352     3.643915473906
C                    -2.604249638983   -10.727145344984     4.618337616455
H                    -2.987268199318   -11.120639068748     5.554143396021
C                    -2.303921510820    -9.367758958040     4.496041640924
O                    -2.497222521521    -8.556082567829     5.589882119792
C                    -3.692891750814    -7.761830760765     5.540852194898
H                    -3.701643108895    -7.169977695428     6.457453741898
H                    -4.580929894221    -8.405095429451     5.506211572049
H                    -3.692028990873    -7.091272846087     4.674584068556
C                    -2.049215369270    -6.613806424977     2.161338553231
H                    -2.798992133698    -7.043642002237     1.502331555750
H                    -2.579770758484    -4.981766883135     0.212867449193
C                    -3.086840104191    -2.455755988914     0.010592074550
H                    -2.894415479743    -2.876320413194    -0.971818786468
H                    -3.305182648352    -0.431249798064    -1.850022674134
H                    -4.330394457566     0.616879903546    -0.825340216759
H                    -6.927265048436    -0.417765611305    -0.365598676280
