
  -OEChem-12102412493D

 46 48  0     1  0  0  0  0  0999 V2000
   -3.8590   -2.5247   -3.0221 N   0  0  0  0  0  0  0  0  0  0  0  0
   -3.3290   -1.0821   -2.8242 S   0  0  1  0  0  0  0  0  0  0  0  0
   -1.8776   -0.9200   -3.0085 O   0  0  0  0  0  0  0  0  0  0  0  0
   -4.1823    0.1240   -3.8949 C   0  0  0  0  0  0  0  0  0  0  0  0
   -3.7667    1.1180   -3.7196 H   0  0  0  0  0  0  0  0  0  0  0  0
   -3.9825   -0.1973   -4.9188 H   0  0  0  0  0  0  0  0  0  0  0  0
   -5.2559    0.1050   -3.6923 H   0  0  0  0  0  0  0  0  0  0  0  0
   -3.7479   -0.3855   -1.1484 C   0  0  0  0  0  0  0  0  0  0  0  0
   -2.9855   -1.1324   -0.0992 C   0  0  0  0  0  0  0  0  0  0  0  0
   -1.7956   -0.6151    0.4334 C   0  0  0  0  0  0  0  0  0  0  0  0
   -1.4024    0.3430    0.1082 H   0  0  0  0  0  0  0  0  0  0  0  0
   -1.1174   -1.3752    1.3849 C   0  0  0  0  0  0  0  0  0  0  0  0
   -0.1949   -1.0017    1.8268 H   0  0  0  0  0  0  0  0  0  0  0  0
   -1.5109   -2.5860    1.7993 N   0  0  0  0  0  0  0  0  0  0  0  0
   -2.6396   -3.0782    1.2816 C   0  0  0  0  0  0  0  0  0  0  0  0
   -3.0548   -4.3632    1.6599 N   0  0  0  0  0  0  0  0  0  0  0  0
   -2.5484   -5.0977    2.7425 C   0  0  0  0  0  0  0  0  0  0  0  0
   -2.3713   -4.4537    3.9033 N   0  0  0  0  0  0  0  0  0  0  0  0
   -1.9256   -5.1648    4.9409 C   0  0  0  0  0  0  0  0  0  0  0  0
   -1.7729   -4.6411    5.8831 H   0  0  0  0  0  0  0  0  0  0  0  0
   -1.6826   -6.5317    4.8685 C   0  0  0  0  0  0  0  0  0  0  0  0
   -1.2693   -7.1795    5.9918 F   0  0  0  0  0  0  0  0  0  0  0  0
   -1.8853   -7.2388    3.6778 C   0  0  0  0  0  0  0  0  0  0  0  0
   -1.6304   -8.6940    3.5604 C   0  0  0  0  0  0  0  0  0  0  0  0
   -0.4456   -9.2544    4.0655 C   0  0  0  0  0  0  0  0  0  0  0  0
    0.2699   -8.6104    4.5656 H   0  0  0  0  0  0  0  0  0  0  0  0
   -0.1536  -10.6105    3.9225 C   0  0  0  0  0  0  0  0  0  0  0  0
    0.7681  -11.0388    4.3026 H   0  0  0  0  0  0  0  0  0  0  0  0
   -1.0785  -11.4150    3.2651 C   0  0  0  0  0  0  0  0  0  0  0  0
   -0.8125  -12.7362    3.1135 F   0  0  0  0  0  0  0  0  0  0  0  0
   -2.2716  -10.9129    2.7599 C   0  0  0  0  0  0  0  0  0  0  0  0
   -2.9823  -11.5592    2.2555 H   0  0  0  0  0  0  0  0  0  0  0  0
   -2.5437   -9.5507    2.9100 C   0  0  0  0  0  0  0  0  0  0  0  0
   -3.7251   -9.0734    2.3779 O   0  0  0  0  0  0  0  0  0  0  0  0
   -4.7509   -8.8211    3.3511 C   0  0  0  0  0  0  0  0  0  0  0  0
   -5.6148   -8.4512    2.7960 H   0  0  0  0  0  0  0  0  0  0  0  0
   -4.4333   -8.0662    4.0785 H   0  0  0  0  0  0  0  0  0  0  0  0
   -5.0163   -9.7470    3.8754 H   0  0  0  0  0  0  0  0  0  0  0  0
   -2.3167   -6.4732    2.5878 C   0  0  0  0  0  0  0  0  0  0  0  0
   -2.4630   -6.9510    1.6251 H   0  0  0  0  0  0  0  0  0  0  0  0
   -3.4688   -4.9116    0.9178 H   0  0  0  0  0  0  0  0  0  0  0  0
   -3.4212   -2.3788    0.3427 C   0  0  0  0  0  0  0  0  0  0  0  0
   -4.3405   -2.8157   -0.0361 H   0  0  0  0  0  0  0  0  0  0  0  0
   -3.4783    0.6728   -1.1735 H   0  0  0  0  0  0  0  0  0  0  0  0
   -4.8312   -0.4923   -1.0382 H   0  0  0  0  0  0  0  0  0  0  0  0
   -4.8811   -2.5468   -3.0293 H   0  0  0  0  0  0  0  0  0  0  0  0
  1  2  2  0  0  0  0
  1 46  1  0  0  0  0
  2  3  2  0  0  0  0
  2  4  1  0  0  0  0
  2  8  1  0  0  0  0
  4  5  1  0  0  0  0
  4  6  1  0  0  0  0
  4  7  1  0  0  0  0
  8  9  1  0  0  0  0
  8 44  1  0  0  0  0
  8 45  1  0  0  0  0
  9 10  1  0  0  0  0
  9 42  2  0  0  0  0
 10 11  1  0  0  0  0
 10 12  2  0  0  0  0
 12 13  1  0  0  0  0
 12 14  1  0  0  0  0
 14 15  2  0  0  0  0
 15 16  1  0  0  0  0
 15 42  1  0  0  0  0
 16 17  1  0  0  0  0
 16 41  1  0  0  0  0
 17 18  1  0  0  0  0
 17 39  2  0  0  0  0
 18 19  2  0  0  0  0
 19 20  1  0  0  0  0
 19 21  1  0  0  0  0
 21 22  1  0  0  0  0
 21 23  2  0  0  0  0
 23 24  1  0  0  0  0
 23 39  1  0  0  0  0
 24 25  2  0  0  0  0
 24 33  1  0  0  0  0
 25 26  1  0  0  0  0
 25 27  1  0  0  0  0
 27 28  1  0  0  0  0
 27 29  2  0  0  0  0
 29 30  1  0  0  0  0
 29 31  1  0  0  0  0
 31 32  1  0  0  0  0
 31 33  2  0  0  0  0
 33 34  1  0  0  0  0
 34 35  1  0  0  0  0
 35 36  1  0  0  0  0
 35 37  1  0  0  0  0
 35 38  1  0  0  0  0
 39 40  1  0  0  0  0
 42 43  1  0  0  0  0
M  END
$$$$
