
  -OEChem-12122420533D

 48 51  0     1  0  0  0  0  0999 V2000
   -1.4766    4.1289   -5.5379 N   0  0  0  0  0  0  0  0  0  0  0  0
   -0.0113    3.7857   -5.1792 S   0  0  1  0  0  0  0  0  0  0  0  0
    0.2430    2.3554   -4.9270 O   0  0  0  0  0  0  0  0  0  0  0  0
    1.1678    4.3350   -6.4601 C   0  0  0  0  0  0  0  0  0  0  0  0
    2.1803    4.0294   -6.1924 H   0  0  0  0  0  0  0  0  0  0  0  0
    0.8499    3.8298   -7.3741 H   0  0  0  0  0  0  0  0  0  0  0  0
    1.1004    5.4187   -6.5837 H   0  0  0  0  0  0  0  0  0  0  0  0
    0.5703    4.7146   -3.7040 C   0  0  0  0  0  0  0  0  0  0  0  0
    1.9839    4.3490   -3.2573 C   0  0  0  0  0  0  0  0  0  0  0  0
    2.2911    4.9747   -1.9035 C   0  0  0  0  0  0  0  0  0  0  0  0
    3.6418    4.5966   -1.5665 O   0  0  0  0  0  0  0  0  0  0  0  0
    4.1154    5.0327   -0.3773 C   0  0  0  0  0  0  0  0  0  0  0  0
    3.3451    5.7895    0.3662 N   0  0  0  0  0  0  0  0  0  0  0  0
    3.8988    6.1750    1.5434 N   0  0  0  0  0  0  0  0  0  0  0  0
    5.1880    5.8622    1.9862 C   0  0  0  0  0  0  0  0  0  0  0  0
    5.4342    6.4264    3.1746 N   0  0  0  0  0  0  0  0  0  0  0  0
    4.3001    7.0992    3.4932 C   0  0  0  0  0  0  0  0  0  0  0  0
    4.2036    7.6396    4.4268 H   0  0  0  0  0  0  0  0  0  0  0  0
    3.3148    6.9728    2.5049 C   0  0  0  0  0  0  0  0  0  0  0  0
    1.9930    7.5456    2.4443 C   0  0  0  0  0  0  0  0  0  0  0  0
    1.4876    8.6670    3.0490 C   0  0  0  0  0  0  0  0  0  0  0  0
    2.0450    9.3612    3.6626 H   0  0  0  0  0  0  0  0  0  0  0  0
    0.0932    8.7248    2.6976 C   0  0  0  0  0  0  0  0  0  0  0  0
   -0.1447    7.6015    1.8809 C   0  0  0  0  0  0  0  0  0  0  0  0
   -1.3856    7.2819    1.3390 C   0  0  0  0  0  0  0  0  0  0  0  0
   -1.5278    6.3997    0.7231 H   0  0  0  0  0  0  0  0  0  0  0  0
   -2.4357    8.1505    1.6487 C   0  0  0  0  0  0  0  0  0  0  0  0
   -3.4294    7.9441    1.2615 H   0  0  0  0  0  0  0  0  0  0  0  0
   -2.2373    9.2908    2.4539 C   0  0  0  0  0  0  0  0  0  0  0  0
   -3.0670    9.9526    2.6849 H   0  0  0  0  0  0  0  0  0  0  0  0
   -0.9826    9.5893    2.9806 C   0  0  0  0  0  0  0  0  0  0  0  0
   -0.8164   10.6898    3.7968 O   0  0  0  0  0  0  0  0  0  0  0  0
   -0.1412   11.7878    3.1700 C   0  0  0  0  0  0  0  0  0  0  0  0
   -0.0507   12.5682    3.9281 H   0  0  0  0  0  0  0  0  0  0  0  0
   -0.7235   12.1652    2.3199 H   0  0  0  0  0  0  0  0  0  0  0  0
    0.8574   11.4999    2.8200 H   0  0  0  0  0  0  0  0  0  0  0  0
    1.0143    6.8808    1.7244 O   0  0  0  0  0  0  0  0  0  0  0  0
    5.9781    5.0436    1.1490 C   0  0  0  0  0  0  0  0  0  0  0  0
    6.9798    4.7771    1.4693 H   0  0  0  0  0  0  0  0  0  0  0  0
    5.4454    4.6187   -0.0402 C   0  0  0  0  0  0  0  0  0  0  0  0
    5.9871    3.9855   -0.7336 H   0  0  0  0  0  0  0  0  0  0  0  0
    1.6106    4.6139   -1.1257 H   0  0  0  0  0  0  0  0  0  0  0  0
    2.2178    6.0670   -1.9285 H   0  0  0  0  0  0  0  0  0  0  0  0
    2.7251    4.6988   -3.9829 H   0  0  0  0  0  0  0  0  0  0  0  0
    2.0728    3.2613   -3.1881 H   0  0  0  0  0  0  0  0  0  0  0  0
    0.4553    5.7806   -3.9289 H   0  0  0  0  0  0  0  0  0  0  0  0
   -0.1779    4.4427   -2.9522 H   0  0  0  0  0  0  0  0  0  0  0  0
   -1.6004    5.1253   -5.7295 H   0  0  0  0  0  0  0  0  0  0  0  0
  1  2  2  0  0  0  0
  1 48  1  0  0  0  0
  2  3  2  0  0  0  0
  2  4  1  0  0  0  0
  2  8  1  0  0  0  0
  4  5  1  0  0  0  0
  4  6  1  0  0  0  0
  4  7  1  0  0  0  0
  8  9  1  0  0  0  0
  8 46  1  0  0  0  0
  8 47  1  0  0  0  0
  9 10  1  0  0  0  0
  9 44  1  0  0  0  0
  9 45  1  0  0  0  0
 10 11  1  0  0  0  0
 10 42  1  0  0  0  0
 10 43  1  0  0  0  0
 11 12  1  0  0  0  0
 12 13  2  0  0  0  0
 12 40  1  0  0  0  0
 13 14  1  0  0  0  0
 14 15  1  0  0  0  0
 14 19  1  0  0  0  0
 15 16  2  0  0  0  0
 15 38  1  0  0  0  0
 16 17  1  0  0  0  0
 17 18  1  0  0  0  0
 17 19  2  0  0  0  0
 19 20  1  0  0  0  0
 20 21  2  0  0  0  0
 20 37  1  0  0  0  0
 21 22  1  0  0  0  0
 21 23  1  0  0  0  0
 23 24  1  0  0  0  0
 23 31  2  0  0  0  0
 24 25  2  0  0  0  0
 24 37  1  0  0  0  0
 25 26  1  0  0  0  0
 25 27  1  0  0  0  0
 27 28  1  0  0  0  0
 27 29  2  0  0  0  0
 29 30  1  0  0  0  0
 29 31  1  0  0  0  0
 31 32  1  0  0  0  0
 32 33  1  0  0  0  0
 33 34  1  0  0  0  0
 33 35  1  0  0  0  0
 33 36  1  0  0  0  0
 38 39  1  0  0  0  0
 38 40  2  0  0  0  0
 40 41  1  0  0  0  0
M  END
$$$$
