11
0 1 C3H3NO2S2
C                     1.132552019664    -0.063988468155     1.770735073681
N                     0.350156978350    -0.013895045238     0.527156473406
C                     0.228793910491    -1.168854158411    -0.238112827006
O                     0.736492093352    -2.237148337554     0.032099900183
S                    -0.764881514061    -0.959835240443    -1.715259987325
S                    -1.206098819980     1.084894468241    -1.353806403761
C                    -0.277206232661     1.176760552782     0.176571136687
O                    -0.221832033940     2.205035625991     0.818106782339
H                     0.488857717293    -0.338123848420     2.610331287453
H                     1.915027442997    -0.812169202364     1.650721524128
H                     1.559516186128     0.922822522537     1.945390874622
