9    
torsion grid (-165,)
C        1.1747778244    0.1178742370   -1.7427738236
C       -0.9420585117   -0.0408492373    1.4960419578
N        0.7849889164    0.0392488861   -0.5272321808
S       -0.7859900669   -0.6050246748   -0.2245983333
H        2.1781280852    0.5083453433   -1.9204104769
H        0.5841973468   -0.1823517761   -2.6170401633
H       -1.8861887141   -0.4420792521    1.8744388846
H       -0.9656576987    1.0495402403    1.5431743562
H       -0.1153706167   -0.4270066622    2.0955483357
9    
torsion grid (-150,)
C        1.1619804437    0.1286440179   -1.7137599458
C       -0.9384746374   -0.0312095901    1.4684848361
N        0.8538902393   -0.1256749329   -0.4992174349
S       -0.7459878153   -0.7254447631   -0.2002933676
H        2.1792555777    0.4732706990   -1.9093564986
H        0.4887129072    0.0136565803   -2.5720897788
H       -1.8745646895   -0.4274500504    1.8711935410
H       -0.9914125131    1.0586648375    1.4304203274
H       -0.1065729480   -0.3467596942    2.1017668775
9    
torsion grid (-135,)
C        1.1427568759    0.1391022958   -1.6676728963
C       -0.9273775631   -0.0228681782    1.4270106289
N        0.9127975399   -0.2904416136   -0.4861709320
S       -0.7136674996   -0.8534574443   -0.1762610179
H        2.1621427519    0.4609807760   -1.8926274239
H        0.3985128484    0.1935944273   -2.4715534715
H       -1.8617747692   -0.3933798321    1.8571085389
H       -0.9901209718    1.0597530983    1.2976175921
H       -0.0964426478   -0.2755864252    2.0896975380
9    
torsion grid (-120,)
C        1.1154566186    0.1495944600   -1.6073471022
C       -0.9076398379   -0.0154587874    1.3740956763
N        0.9578785760   -0.4499243738   -0.4908458687
S       -0.6886861525   -0.9836966013   -0.1503195010
H        2.1287324536    0.4699496806   -1.8638678928
H        0.3135206064    0.3512317418   -2.3281105426
H       -1.8455101482   -0.3441674022    1.8298492767
H       -0.9650201116    1.0525671997    1.1514446008
H       -0.0819054398   -0.2123988133    2.0622499099
9    
torsion grid (-105,)
C        1.0847564898    0.1587023008   -1.5369836190
C       -0.8836489951   -0.0078850909    1.3133973522
N        0.9913311879   -0.6006577110   -0.5157956235
S       -0.6674089112   -1.1053118991   -0.1227184156
H        2.0870597329    0.4869848545   -1.8270098786
H        0.2364829864    0.4895603959   -2.1492411753
H       -1.8237051903   -0.2934048021    1.7933486770
H       -0.9364368458    1.0384667307    1.0023718906
H       -0.0616038900   -0.1487576745    2.0197793485
9    
torsion grid (-90,)
C        1.0552679644    0.1627823252   -1.4657652710
C       -0.8597761318    0.0008895741    1.2507008324
N        1.0088567891   -0.7383054293   -0.5646098923
S       -0.6444306694   -1.2152045702   -0.0888224570
H        2.0455155305    0.4948384857   -1.7916895573
H        0.1772410063    0.6196412901   -1.9404303001
H       -1.7986636025   -0.2481452339    1.7530663509
H       -0.9186202059    1.0189271866    0.8570189911
H       -0.0385641161   -0.0777265240    1.9676798597
9    
torsion grid (-75,)
C        1.0402024042    0.1649871637   -1.4005811826
C       -0.8481628357    0.0106440404    1.1930714884
N        1.0064073293   -0.8561090265   -0.6379521581
S       -0.6179773983   -1.3029215183   -0.0523315429
H        2.0186955627    0.4767098214   -1.7773351831
H        0.1639872666    0.7499245539   -1.7099236417
H       -1.7678905308   -0.2344242323    1.7318469346
H       -0.9557513768    0.9961078345    0.7327741701
H       -0.0126838567    0.0127784674    1.8975796717
9    
torsion grid (-60,)
C        1.0485664831    0.1645459436   -1.3521588064
C       -0.8577906035    0.0207073379    1.1468021197
N        0.9718975009   -0.9460991401   -0.7299296004
S       -0.5886326686   -1.3633908803   -0.0161585879
H        2.0098689976    0.4169567895   -1.8072337937
H        0.2323011741    0.8903575041   -1.4603576470
H       -1.7220528748   -0.2643462808    1.7536581028
H       -1.0792950990    0.9651514603    0.6438486428
H        0.0119636548    0.1338143699    1.7986781264
9    
torsion grid (-45,)
C        1.0678703344    0.1611802621   -1.3087686772
C       -0.8791796929    0.0309995143    1.1051500315
N        0.8996900997   -1.0068876076   -0.8207779014
S       -0.5709338201   -1.4025731855    0.0094494924
H        1.9940392904    0.3440582171   -1.8577983166
H        0.3729500669    1.0027620339   -1.1994462107
H       -1.6319725685   -0.3052823712    1.8236035079
H       -1.2641214436    0.9104279608    0.5825618617
H        0.0384842983    0.2830122802    1.6431747687
9    
torsion grid (-30,)
C        1.0776577594    0.1613294119   -1.2687150408
C       -0.8890190844    0.0353964517    1.0707668171
N        0.8296331482   -1.0369836169   -0.8987329077
S       -0.5357631405   -1.4394341793    0.0475265183
H        1.9473459418    0.3160968313   -1.9094970176
H        0.5071240547    1.0485583584   -0.9707037104
H       -1.5860985503   -0.3037862238    1.8420043025
H       -1.3549123279    0.8535931277    0.5145289083
H        0.0308587636    0.3829269431    1.5499706866
9    
torsion grid (-15,)
C        1.0798389990    0.1634886440   -1.2434440480
C       -0.8887454311    0.0360770295    1.0518035509
N        0.7637763208   -1.0454194406   -0.9697115100
S       -0.4790248287   -1.4702472242    0.1020137467
H        1.8791743904    0.3183246833   -1.9693745911
H        0.6268521528    1.0540488008   -0.7943684266
H       -1.5824456873   -0.2903522251    1.8315828016
H       -1.3798281202    0.8018882791    0.4441645116
H        0.0072287689    0.4498885574    1.5244825212
9    
torsion grid (0,)
C        1.0853947418    0.1625495063   -1.2305913590
C       -0.8887513532    0.0370596161    1.0449524715
N        0.6951969454   -1.0398276910   -1.0334478383
S       -0.4127904486   -1.4891452847    0.1624155880
H        1.8047140432    0.3282630369   -2.0335364600
H        0.7563556122    1.0371569054   -0.6594900155
H       -1.6023530947   -0.2797875734    1.8106444784
H       -1.3799638925    0.7544356973    0.3805018502
H       -0.0309759890    0.5069928913    1.5356998410
9    
torsion grid (15,)
C        1.0503029370    0.2213575560   -1.2597351027
C       -0.7421262986   -0.2511678870    1.1326771858
N       -0.1226872707    0.6912500449   -1.4586795894
S       -1.4357434048    0.4040539660   -0.4257079278
H        1.8124658709    0.4490210271   -2.0061689138
H        1.3557186457   -0.3738662933   -0.3923290667
H       -1.5820368567   -0.2911605400    1.8318071483
H        0.0192747863    0.4262832568    1.5311286496
H       -0.3283418444   -1.2580740263    1.0241561731
9    
torsion grid (30,)
C        1.0527462978    0.2101384049   -1.2824552385
C       -0.7468803424   -0.2430710230    1.1491691098
N       -0.0912437957    0.7671045404   -1.4066829097
S       -1.4352470789    0.3227391784   -0.4486249681
H        1.8395801298    0.5272279765   -1.9689381392
H        1.3162029406   -0.5364994941   -0.5244201934
H       -1.5967408291   -0.2829444408    1.8361328681
H       -0.0227752764    0.4879948382    1.5203882131
H       -0.2888154811   -1.2349928764    1.1025798144
9    
torsion grid (45,)
C        1.0552447234    0.1859203440   -1.3157321809
C       -0.7515944102   -0.2189565509    1.1755248150
N       -0.0422263820    0.8384187151   -1.3403329762
S       -1.4204836681    0.2617748492   -0.4591587631
H        1.8783271138    0.5707568050   -1.9216225156
H        1.2483917070   -0.7123056512   -0.7165579568
H       -1.6219654600   -0.3248947215    1.8291220428
H       -0.1142411284    0.5822089856    1.5589342684
H       -0.2046259309   -1.1652256712    1.1669718228
9    
torsion grid (60,)
C        1.0553218896    0.1513170998   -1.3484319992
C       -0.7553021466   -0.1800819884    1.2033337720
N        0.0287251858    0.9016669861   -1.2501771243
S       -1.3959500564    0.2182198543   -0.4614717088
H        1.9326975204    0.5681503669   -1.8497991427
H        1.1327731375   -0.8737453376   -0.9636635903
H       -1.6308138796   -0.4430991133    1.8039835290
H       -0.2774891317    0.7008723561    1.6390195344
H       -0.0631359544   -1.0256031197    1.2043552862
9    
torsion grid (75,)
C        1.0609352095    0.1243753432   -1.3891445281
C       -0.7670129392   -0.1483411146    1.2378329263
N        0.0986489690    0.9222775478   -1.1386653743
S       -1.3600467125    0.1508622617   -0.4616543027
H        1.9772058746    0.5579992528   -1.8002185148
H        1.0375655191   -0.9614904281   -1.2280642370
H       -1.6313454196   -0.5019360217    1.8071627981
H       -0.4059917278    0.7832978725    1.6806353244
H        0.0168677915   -0.9093476094    1.2692644645
9    
torsion grid (90,)
C        1.0824454847    0.1095450048   -1.4507738032
C       -0.7939053108   -0.1281626952    1.2870344764
N        0.1741720571    0.8969227829   -1.0250160232
S       -1.3015468601    0.0721482946   -0.4512856360
H        2.0104873622    0.5634692225   -1.8110087791
H        0.9958463081   -0.9840754802   -1.4888939423
H       -1.6651569139   -0.5097045863    1.8267061670
H       -0.5058056184    0.8376354324    1.7099542107
H        0.0302900558   -0.8400808713    1.3804318860
9    
torsion grid (105,)
C        1.1126349440    0.1040920752   -1.5216055231
C       -0.8286296323   -0.1156785857    1.3437454003
N        0.2578712731    0.8362612530   -0.9203666385
S       -1.2245835055   -0.0137540598   -0.4300544125
H        2.0374670198    0.5841491098   -1.8543626859
H        0.9777288101   -0.9626009996   -1.7403760530
H       -1.7235865620   -0.4895538929    1.8485718851
H       -0.5851837667    0.8769764893    1.7309776050
H        0.0031079842   -0.8021942852    1.5206189789
9    
torsion grid (120,)
C        1.1395504127    0.1023990169   -1.5940566121
C       -0.8620822908   -0.1047159357    1.3992246496
N        0.3469283679    0.7469864270   -0.8278412540
S       -1.1389990373   -0.1014907810   -0.3987112363
H        2.0578592060    0.6088046227   -1.9029588459
H        0.9577778086   -0.9109190528   -1.9727439103
H       -1.7834201086   -0.4658149939    1.8640960877
H       -0.6551922178    0.9107156567    1.7460301296
H       -0.0355955760   -0.7682678559    1.6641095482
9    
torsion grid (135,)
C        1.1611801196    0.1030162690   -1.6575102609
C       -0.8911410162   -0.0938648477    1.4469982113
N        0.4398959608    0.6360189897   -0.7470195125
S       -1.0494631054   -0.1956015753   -0.3614857665
H        2.0776112105    0.6265937311   -1.9392522539
H        0.9203751961   -0.8287728227   -2.1836990271
H       -1.8367044659   -0.4425025113    1.8709354719
H       -0.7181097671    0.9423096204    1.7467914169
H       -0.0768175677   -0.7294997491    1.8013902773
9    
torsion grid (150,)
C        1.1748456080    0.1034476928   -1.7066638694
C       -0.9131758314   -0.0807795071    1.4824397875
N        0.5322426727    0.5044654548   -0.6766358717
S       -0.9665174210   -0.2934054206   -0.3219381341
H        2.1010211584    0.6265476334   -1.9525086208
H        0.8599593294   -0.7136382327   -2.3673140865
H       -1.8735025092   -0.4295389905    1.8717787343
H       -0.7811184135    0.9747324115    1.7296924370
H       -0.1069280286   -0.6741339374    1.9182981801
9    
torsion grid (165,)
C        1.1806840983    0.1063106142   -1.7395155226
C       -0.9286223506   -0.0671782313    1.5034530547
N        0.6218133230    0.3589274333   -0.6172379470
S       -0.8939934442   -0.3934349262   -0.2841743594
H        2.1294293326    0.6037587633   -1.9472701208
H        0.7786002044   -0.5631942390   -2.5098104880
H       -1.8924476669   -0.4298252075    1.8709846701
H       -0.8463062010    1.0049563551    1.6923703932
H       -0.1223307310   -0.6026234578    2.0083488761
9    
torsion grid (180,)
C        1.1804807859    0.1103310864   -1.7518799585
C       -0.9382121528   -0.0530012063    1.5081313295
N        0.7070979942    0.2021799268   -0.5673419638
S       -0.8343918713   -0.4951765626   -0.2516211637
H        2.1584753466    0.5584863258   -1.9338598089
H        0.6829285879   -0.3818439689   -2.5965939291
H       -1.8943544632   -0.4386671894    1.8724195243
H       -0.9126824126    1.0313594892    1.6312578823
H       -0.1225152500   -0.5159707969    2.0666366445
