25   
torsion grid (-165,)
C        0.2592342817   -0.3452908835   -0.0282096196
C        2.3228597827   -1.0209491858    1.2461439317
C       -0.5244454142   -0.2292975976    1.2886570709
C        1.5460211215   -0.9262039122    2.5684071602
C        1.4077745046   -1.3624383130    0.0595554581
C        0.4057880609    0.0946549200    2.4638819093
C        2.1922730520   -1.4430180890   -1.2539501353
C       -0.8769500447   -1.3614665720    4.5689706480
S       -0.5049501077    0.3494550240    4.0481297635
H       -0.4232723746   -0.6188505370   -0.8422928167
H        0.6759105828    0.6383792561   -0.2891386629
H        2.8237065566   -0.0626565922    1.0467196206
H        3.1158747180   -1.7735011484    1.3372450967
H       -1.2983839583    0.5402895989    1.2074552957
H       -1.0407987794   -1.1771934085    1.4897359863
H        1.1335512445   -1.9143106840    2.8057895707
H        2.2154155186   -0.6521360587    3.3908911506
H        0.9643886880   -2.3507777717    0.2551414210
H        0.8613937168    1.0801612512    2.3020821128
H        2.9917095337   -2.1904213397   -1.1955516594
H        2.6556586095   -0.4776408877   -1.4916011649
H        1.5396675527   -1.7137987143   -2.0916985586
H       -1.5398140478   -1.2769459771    5.4338197119
H        0.0231011153   -1.9018149782    4.8706257846
H       -1.4002067571   -1.9192546661    3.7875686536
25   
torsion grid (-150,)
C        0.2777565932   -0.3061171033   -0.0838804633
C        2.2644812872   -1.0646060971    1.2643009349
C       -0.5576862484   -0.1991005748    1.2012119684
C        1.4310150246   -0.9833147454    2.5528938980
C        1.3962654821   -1.3537015277    0.0294455041
C        0.3282307509    0.0748900896    2.4214988072
C        2.2378675186   -1.4223834917   -1.2489223679
C       -0.7545034951   -1.3508035546    4.6856604383
S       -0.6622159341    0.3249610227    3.9648288645
H       -0.3755327828   -0.5443584156   -0.9322700028
H        0.7294034269    0.6720353477   -0.3043615673
H        2.7978316174   -0.1152812315    1.1124902012
H        3.0331722096   -1.8398651008    1.3720543843
H       -1.3093500933    0.5906032430    1.1037750492
H       -1.1060631097   -1.1362114587    1.3660817881
H        0.9824188247   -1.9653376341    2.7436248921
H        2.0731337086   -0.7503014552    3.4094976199
H        0.9208068926   -2.3349372760    0.1799999007
H        0.8352657481    1.0410517054    2.3064994303
H        3.0157047960   -2.1907929538   -1.1736688655
H        2.7344584570   -0.4634285932   -1.4411919726
H        1.6177256736   -1.6564329719   -2.1216476103
H       -1.4021125485   -1.2595322405    5.5615399565
H        0.2233483691   -1.7112467576    5.0115140874
H       -1.2059150117   -2.0708154915    3.9974028531
25   
torsion grid (-135,)
C        0.3016796812   -0.2662675973   -0.1328248774
C        2.2081615590   -1.1180156196    1.2726649147
C       -0.5849284247   -0.1875625570    1.1189282860
C        1.3236702041   -1.0582217029    2.5285179412
C        1.3899494284   -1.3439033057   -0.0083602142
C        0.2527895391    0.0293081387    2.3843860305
C        2.2868595436   -1.3889317262   -1.2495829413
C       -0.6472892500   -1.3114287671    4.8142440517
S       -0.8339024627    0.2453061589    3.8762447571
H       -0.3196925201   -0.4600889531   -1.0157734156
H        0.7837792596    0.7079592788   -0.2994648403
H        2.7694254459   -0.1775655904    1.1768639311
H        2.9533317813   -1.9148870711    1.3875995328
H       -1.3189063628    0.6185129258    1.0159286494
H       -1.1562277203   -1.1181715362    1.2320902451
H        0.8463970142   -2.0345431729    2.6740140314
H        1.9419766248   -0.8659901812    3.4120000497
H        0.8859026756   -2.3177602274    0.0861247633
H        0.7860900938    0.9852091676    2.3180088033
H        3.0426656900   -2.1783591144   -1.1674363980
H        2.8134532369   -0.4363319028   -1.3853310082
H        1.7015394902   -1.5773610314   -2.1566997665
H       -1.2813811232   -1.1906787000    5.6966230874
H        0.3799421778   -1.4741896711    5.1460258163
H       -0.9997784250   -2.1810645085    4.2535862991
25   
torsion grid (-120,)
C        0.2639815033   -1.5310365097   -0.1466275570
C        1.9457790583   -0.1458233227    1.1141560115
C       -0.5670260255   -1.6800949191    1.1359056680
C        1.1199591299   -0.2980116232    2.4022016518
C        1.7576909560   -1.3295283803    0.1523498057
C       -0.3639988732   -0.4805600173    2.0715943635
C        2.5732128420   -1.1471769346   -1.1316604724
C       -0.3932060874   -0.5902770862    5.0037350898
S       -1.4909383832   -0.6516395351    3.5440311232
H        0.1240795071   -2.4128180172   -0.7838699389
H       -0.1035053952   -0.6694177468   -0.7226059806
H        1.6522401490    0.7812470125    0.6013867319
H        3.0065262818   -0.0366799358    1.3717465957
H       -1.6292335754   -1.7865883961    0.8893724551
H       -0.2759821688   -2.5936521277    1.6694314352
H        1.4833161032   -1.1700142604    2.9595750798
H        1.2687202334    0.5783003634    3.0411547032
H        2.1202717179   -2.2342436209    0.6634256945
H       -0.7080214375    0.4258138347    1.5594744897
H        3.6411389106   -1.0327661804   -0.9133287803
H        2.2471240642   -0.2534959511   -1.6777104855
H        2.4576172746   -2.0067052673   -1.8015861404
H       -1.0588095981   -0.7127615113    5.8624331457
H        0.1211029003    0.3683385631    5.1007200672
H        0.3334680691   -1.4054356971    5.0130729723
25   
torsion grid (-105,)
C        0.2553216021   -1.5023647927   -0.1749930921
C        1.9724466377   -0.2232230718    1.1493086002
C       -0.5603979314   -1.7196084875    1.1075020561
C        1.1552694790   -0.4391198119    2.4337191689
C        1.7551563587   -1.3413578951    0.1178238756
C       -0.3331573421   -0.5758837020    2.1084969609
C        2.5596553320   -1.0915236455   -1.1617319440
C       -0.4336268501   -0.4251236509    5.0234499152
S       -1.4418629120   -0.8783130351    3.5687638210
H        0.0954338578   -2.3427445423   -0.8615159826
H       -0.1067353184   -0.6030372572   -0.6937345323
H        1.6907068332    0.7387451068    0.6978387353
H        3.0373218036   -0.1482895388    1.4019257751
H       -1.6268372235   -1.8023071325    0.8678953489
H       -0.2697387412   -2.6652343639    1.5812575603
H        1.5007794225   -1.3520502567    2.9355368054
H        1.3293008790    0.3932541113    3.1227193148
H        2.1086533686   -2.2816544909    0.5672016196
H       -0.6890960695    0.3483285888    1.6374108425
H        3.6315233082   -1.0073672564   -0.9490150435
H        2.2422366829   -0.1605848069   -1.6472980981
H        2.4233248428   -1.9057201767   -1.8824676186
H       -1.0684930213   -0.6337694576    5.8887449485
H       -0.1717713639    0.6360915793    5.0362576125
H        0.4700935218   -1.0321692804    5.1032810791
25   
torsion grid (-90,)
C        0.2473502321   -1.4734999411   -0.1853395089
C        2.0024384932   -0.2879902956    1.1735537828
C       -0.5474988417   -1.7553231882    1.0972910961
C        1.2036993873   -0.5593713821    2.4588631890
C        1.7539572757   -1.3471131501    0.0885556455
C       -0.2918466694   -0.6713878838    2.1577256755
C        2.5390786460   -1.0386093962   -1.1902578977
C       -0.4900324918   -0.2968309616    5.0171658113
S       -1.3508720891   -1.0913946548    3.6161571720
H        0.0644155288   -2.2715637305   -0.9152190613
H       -0.1125543365   -0.5418864148   -0.6451644178
H        1.7260783171    0.6994459008    0.7767551698
H        3.0721327165   -0.2385543936    1.4115887859
H       -1.6189392183   -1.8147551823    0.8732229610
H       -0.2547855448   -2.7288748488    1.5093282544
H        1.5455122988   -1.4968853676    2.9168942336
H        1.3966381784    0.2399705353    3.1811538043
H        2.1028030837   -2.3143357242    0.4806593141
H       -0.6636088000    0.2764665414    1.7486504517
H        3.6154024257   -0.9781944342   -0.9925544696
H        2.2249419951   -0.0794475498   -1.6198207621
H        2.3803043166   -1.8115366212   -1.9507627609
H       -1.1153064631   -0.4847117104    5.8939920564
H       -0.3990132024    0.7848717998    4.8835084166
H        0.4952119185   -0.7335152132    5.1924307870
25   
torsion grid (-75,)
C        0.2398079716   -1.4463291020   -0.1802176132
C        2.0397586697   -0.3455659140    1.1907356133
C       -0.5297086662   -1.7857419323    1.1040294213
C        1.2694833936   -0.6744101711    2.4796567802
C        1.7538551320   -1.3484261902    0.0624506434
C       -0.2354751569   -0.7640485397    2.2138708190
C        2.5105832969   -0.9863530306   -1.2194362071
C       -0.5672300678   -0.1861863897    4.9916376681
S       -1.2352745726   -1.2663809903    3.6799424339
H        0.0306630254   -2.2036913127   -0.9455564885
H       -0.1207212959   -0.4886880009   -0.5824810791
H        1.7638031560    0.6624727047    0.8489563466
H        3.1154526230   -0.3170685718    1.4038287092
H       -1.6065431058   -1.8195976171    0.9031654674
H       -0.2387772749   -2.7841519980    1.4544001246
H        1.6129251034   -1.6345240003    2.8863504052
H        1.4839816842    0.0881019179    3.2352072035
H        2.1014305255   -2.3368304238    0.3989111673
H       -0.6144781337    0.2098737488    1.8774863935
H        3.5919803942   -0.9458364559   -1.0459136935
H        2.1964451533   -0.0045970215   -1.5945335716
H        2.3249729841   -1.7201759348   -2.0119564572
H       -1.2122298795   -0.3252736960    5.8630378776
H       -0.6033335172    0.8674237045    4.6987922606
H        0.4541357142   -0.4590220499    5.2660135045
25   
torsion grid (-60,)
C        0.2331041270   -1.4186997057   -0.1632908351
C        2.0861203763   -0.4013341179    1.2023436864
C       -0.5096735365   -1.8042434872    1.1241898275
C        1.3495541161   -0.7854670472    2.4952102850
C        1.7547582491   -1.3494732930    0.0396266535
C       -0.1656706815   -0.8446840159    2.2719404914
C        2.4782262134   -0.9401779144   -1.2472706138
C       -0.6662603039   -0.0874497018    4.9516843884
S       -1.1068459767   -1.3946388546    3.7558085501
H       -0.0071700226   -2.1381759404   -0.9555834684
H       -0.1252239232   -0.4395719094   -0.5123554822
H        1.8108658051    0.6239277120    0.9151999493
H        3.1680361879   -0.3928259718    1.3832318691
H       -1.5915867637   -1.8076078989    0.9526137650
H       -0.2292100007   -2.8245419401    1.4169826498
H        1.6911629443   -1.7686883929    2.8426662126
H        1.5933014349   -0.0664271495    3.2843167274
H        2.0991436509   -2.3557622906    0.3220214462
H       -0.5360731823    0.1552178672    2.0088075775
H        3.5646474712   -0.9201225023   -1.1043725056
H        2.1661921934    0.0608805733   -1.5694106951
H        2.2599539418   -1.6359877253   -2.0653683944
H       -1.3121486514   -0.2254386261    5.8224135139
H       -0.8547848868    0.9056524108    4.5324673336
H        0.3750883745   -0.1593873449    5.2745047965
25   
torsion grid (-45,)
C        0.2269967887   -1.3853132620   -0.1367643915
C        2.1432970384   -0.4574071146    1.2070989581
C       -0.4875357431   -1.8060582922    1.1562185055
C        1.4403284694   -0.8850611539    2.5044620714
C        1.7555343492   -1.3521243515    0.0193869751
C       -0.0836253129   -0.9054834220    2.3302130040
C        2.4447745483   -0.9061486471   -1.2741194744
C       -0.7887080923   -0.0059350297    4.9016904691
S       -0.9654311893   -1.4812878874    3.8414203428
H       -0.0520385682   -2.0667338710   -0.9497730074
H       -0.1216537654   -0.3859494085   -0.4348976700
H        1.8788226850    0.5836719044    0.9709705594
H        3.2305088567   -0.4764147123    1.3518623041
H       -1.5735149148   -1.7736253422    1.0200355054
H       -0.2269777029   -2.8454911561    1.3968660995
H        1.7722882438   -1.8898481301    2.7936111215
H        1.7212376100   -0.2121836594    3.3220664292
H        2.0893040251   -2.3747999928    0.2511575233
H       -0.4340826796    0.1161253349    2.1313830983
H        3.5354204534   -0.9116068955   -1.1665339872
H        2.1422125839    0.1123449902   -1.5469189977
H        2.1865845971   -1.5652568602   -2.1107876808
H       -1.3512399956   -0.2022417945    5.8178496627
H       -1.2112798864    0.8774629090    4.4137157812
H        0.2542847578    0.1843385779    5.1681645271
25   
torsion grid (-30,)
C        0.2204928668   -1.3440215478   -0.1022544926
C        2.2075396797   -0.5105754228    1.2008333127
C       -0.4618726356   -1.7874941062    1.2008186824
C        1.5397849379   -0.9630727246    2.5080533602
C        1.7539690710   -1.3563435339    0.0004644390
C        0.0096508467   -0.9420780373    2.3892972125
C        2.4097554784   -0.8877340030   -1.3024436772
C       -0.9280578809    0.0428034665    4.8486910706
S       -0.8102337900   -1.5328041801    3.9337567318
H       -0.1052370425   -1.9900175893   -0.9267874629
H       -0.1098882678   -0.3261306789   -0.3555525031
H        1.9617217773    0.5439033374    1.0073543722
H        3.2984245028   -0.5610913583    1.3047887564
H       -1.5503498647   -1.7191346840    1.1065100884
H       -0.2261417779   -2.8422742206    1.3968045693
H        1.8585619828   -1.9837078445    2.7530157264
H        1.8605782845   -0.3263928656    3.3402698321
H        2.0673704928   -2.3943920162    0.1882308267
H       -0.3143643559    0.0968308295    2.2462819312
H        3.5029147339   -0.9255973065   -1.2340465883
H        2.1262250515    0.1466709750   -1.5325326736
H        2.1044579282   -1.5126140317   -2.1494618575
H       -1.3972362381   -0.1785542176    5.8106366379
H       -1.5513108633    0.7627347514    4.3104879334
H        0.0587522390    0.4760597423    5.0351615006
25   
torsion grid (-15,)
C        0.2141610667   -1.2956512743   -0.0569179672
C        2.2796290208   -0.5592596864    1.1799749693
C       -0.4275961611   -1.7474324749    1.2637940023
C        1.6524759167   -1.0167118404    2.5053969272
C        1.7491541033   -1.3620093373   -0.0183291547
C        0.1199065441   -0.9480439740    2.4518007496
C        2.3673812900   -0.8857924466   -1.3367598799
C       -1.0847564155    0.0546711987    4.7960057575
S       -0.6386994275   -1.5425194468    4.0308120106
H       -0.1674318671   -1.9105586268   -0.8813031001
H       -0.0906618839   -0.2613489326   -0.2736798350
H        2.0605388588    0.5066040120    1.0190702323
H        3.3716954233   -0.6464038179    1.2367921742
H       -1.5164541589   -1.6439297979    1.2185439279
H       -0.2194866546   -2.8135575076    1.4260063878
H        1.9519092599   -2.0506445944    2.7182984894
H        2.0225648792   -0.4071583687    3.3370790267
H        2.0338215048   -2.4141051999    0.1336862274
H       -0.1770637779    0.1028311077    2.3481145036
H        3.4604872536   -0.9614951628   -1.3143963589
H        2.1102099487    0.1624593460   -1.5326778982
H        2.0067954425   -1.4806115910   -2.1836968991
H       -1.5348706227   -0.1699172520    5.7664057112
H       -1.8151117687    0.5940926737    4.1863455911
H       -0.2030906177    0.6814657277    4.9580121337
25   
torsion grid (0,)
C        0.2077772958   -1.2375169389   -0.0027014305
C        2.3516854569   -0.6030109704    1.1536525931
C       -0.3912940337   -1.6854678094    1.3390387218
C        1.7651594105   -1.0488778730    2.5015025569
C        1.7388517996   -1.3668888371   -0.0306439563
C        0.2360498693   -0.9250675883    2.5144939033
C        2.3212103517   -0.8976910942   -1.3677977906
C       -1.2393834430    0.0265302367    4.7298146987
S       -0.4601830502   -1.5116323234    4.1272125870
H       -0.2335969815   -1.8235674941   -0.8182616890
H       -0.0633504161   -0.1883845611   -0.1917095209
H        2.1695556903    0.4728015796    1.0144548787
H        3.4407378993   -0.7345018203    1.1624705562
H       -1.4770219534   -1.5429912191    1.3438271327
H       -0.2166185581   -2.7602997722    1.4785675976
H        2.0376221182   -2.0949519214    2.6929344879
H        2.1904653044   -0.4606345347    3.3213764639
H        1.9855246387   -2.4318620712    0.0962124982
H       -0.0341827821    0.1348107943    2.4350818612
H        3.4102315979   -1.0182713402   -1.3923465609
H        2.0997853408    0.1628926479   -1.5395557271
H        1.9014028350   -1.4650731303   -2.2062200149
H       -1.6883297657   -0.2023020683    5.6998293633
H       -2.0270034456    0.3664352540    4.0513778118
H       -0.4995880226    0.8204955883    4.8657667068
25   
torsion grid (15,)
C        0.2005807314   -1.1738032595    0.0594722806
C        2.4168196085   -0.6446115242    1.1303860477
C       -0.3566892816   -1.6112775057    1.4223219149
C        1.8670766925   -1.0692602294    2.5006896353
C        1.7220255368   -1.3697464948   -0.0330471701
C        0.3474251337   -0.8811240279    2.5744487769
C        2.2698620821   -0.9136704082   -1.3891918616
C       -1.3730272609   -0.0307489788    4.6405726790
S       -0.2903242543   -1.4397289933    4.2186352370
H       -0.2995309030   -1.7312951292   -0.7421017277
H       -0.0320831559   -0.1118598826   -0.1081685900
H        2.2805371198    0.4394793746    1.0044726288
H        3.4978476094   -0.8274214040    1.0943888413
H       -1.4360922016   -1.4308899476    1.4728906063
H       -0.2140692831   -2.6917145879    1.5501048793
H        2.1037846783   -2.1269396126    2.6782560648
H        2.3495525025   -0.5011699598    3.3024763498
H        1.9261631572   -2.4457100544    0.0750158568
H        0.1116427573    0.1878351228    2.5036198673
H        3.3505744821   -1.0818363359   -1.4593117349
H        2.0888788341    0.1572119667   -1.5434903605
H        1.7916760327   -1.4540458633   -2.2140818329
H       -1.8317522289   -0.2575880399    5.6064063748
H       -2.1674066262    0.1000326825    3.9000937146
H       -0.7979646064    0.8948558257    4.7335192511
25   
torsion grid (30,)
C        0.1961583269   -1.1054338777    0.1165122691
C        2.4702083663   -0.6791990302    1.1105582834
C       -0.3311709146   -1.5160836402    1.4995389356
C        1.9488300872   -1.0747273465    2.5005293984
C        1.7029474326   -1.3717856854   -0.0269316930
C        0.4433912841   -0.8136203558    2.6231160136
C        2.2253735480   -0.9428582140   -1.4018221924
C       -1.4802145634   -0.1196456098    4.5508294226
S       -0.1416119966   -1.3345067039    4.2943392030
H       -0.3558885939   -1.6417749523   -0.6651340683
H        0.0061228840   -0.0345074281   -0.0471572461
H        2.3809351445    0.4099125251    0.9869507755
H        3.5395023970   -0.9129441829    1.0381800891
H       -1.4002670247   -1.2901980571    1.5823794329
H       -0.2288967133   -2.6006796486    1.6280468783
H        2.1415895217   -2.1421634006    2.6736275172
H        2.4845794097   -0.5260584325    3.2817372314
H        1.8598862000   -2.4560618316    0.0766839655
H        0.2558868572    0.2656191862    2.5534378042
H        3.2940681598   -1.1613599919   -1.5079834450
H        2.0893290047    0.1351441109   -1.5525729320
H        1.6948999355   -1.4610979435   -2.2087505333
H       -1.9261067095   -0.3338369104    5.5253901510
H       -2.2574408443   -0.2079972547    3.7863760066
H       -1.0866040425    0.9008374088    4.5604964614
25   
torsion grid (45,)
C        0.1974264608   -1.0328788789    0.1581048814
C        2.5119631461   -0.7099798562    1.0950339746
C       -0.3169151944   -1.4044702958    1.5572389583
C        2.0033047997   -1.0695614186    2.4990838470
C        1.6856094023   -1.3731234770   -0.0182007452
C        0.5160525668   -0.7279648532    2.6534689917
C        2.1952690823   -0.9805404443   -1.4086076587
C       -1.5636405129   -0.2343360569    4.4837783049
S       -0.0213294804   -1.2015866244    4.3504613725
H       -0.3984239197   -1.5495492387   -0.6043656941
H        0.0549252783    0.0442168800   -0.0125027065
H        2.4738639368    0.3811517036    0.9640804250
H        3.5663804654   -0.9972628446    1.0009589334
H       -1.3721094346   -1.1265140470    1.6544827479
H       -0.2619256732   -2.4910970620    1.6973093626
H        2.1433346419   -2.1445827455    2.6749899787
H        2.5861241308   -0.5436780235    3.2624425922
H        1.7923481490   -2.4628827299    0.0914198928
H        0.3915279599    0.3604106197    2.5762008823
H        3.2492241744   -1.2517975083   -1.5378269297
H        2.1083152429    0.1016538746   -1.5654103292
H        1.6211627015   -1.4782864029   -2.1983948056
H       -1.9423532005   -0.3760830882    5.4990666818
H       -2.3245457931   -0.5774350317    3.7778373170
H       -1.3700817738    0.8311502830    4.3277274535
25   
torsion grid (60,)
C        0.2028929975   -0.9582782643    0.1871146323
C        2.5442982332   -0.7356761124    1.0826544741
C       -0.3114351585   -1.2764132978    1.5998584109
C        2.0375810767   -1.0511155766    2.4974729156
C        1.6689773453   -1.3751537807   -0.0065093880
C        0.5726024922   -0.6262262190    2.6698971136
C        2.1737419317   -1.0307602468   -1.4113749450
C       -1.6230502814   -0.3695925245    4.4357376894
S        0.0722996217   -1.0454800225    4.3915416642
H       -0.4306388756   -1.4570031953   -0.5566906532
H        0.1119571447    0.1214256253   -0.0008957385
H        2.5591711609    0.3537139760    0.9345169435
H        3.5813150252   -1.0776792902    0.9790441382
H       -1.3473560573   -0.9355974536    1.6990176074
H       -0.3156955901   -2.3618309552    1.7610958923
H        2.1196265839   -2.1300237274    2.6835441313
H        2.6616135303   -0.5500370943    3.2454639348
H        1.7242730007   -2.4668702436    0.1202322880
H        0.5167348583    0.4666244347    2.5760978384
H        3.2110137532   -1.3551564992   -1.5524881125
H        2.1368022134    0.0516565538   -1.5853476866
H        1.5631805922   -1.5128444510   -2.1833479334
H       -1.9536010437   -0.4140236043    5.4764794247
H       -2.3148383383   -0.9539903655    3.8244244213
H       -1.6359590598    0.6753050676    4.1108386661
25   
torsion grid (75,)
C        0.2089828479   -0.8870094293    0.2037568433
C        2.5663571397   -0.7587106405    1.0740100883
C       -0.3107643549   -1.1414853145    1.6277951569
C        2.0544590146   -1.0216592746    2.4971986185
C        1.6510868353   -1.3791288016    0.0071581041
C        0.6149462979   -0.5124078960    2.6722563058
C        2.1571886389   -1.0914512752   -1.4099061538
C       -1.6566587201   -0.5075662341    4.4042375996
S        0.1346173413   -0.8608033052    4.4184542945
H       -0.4555114339   -1.3730568020   -0.5211870272
H        0.1685015824    0.1905859724   -0.0113149183
H        2.6329964229    0.3251597778    0.9017959063
H        3.5845090614   -1.1533170613    0.9703999702
H       -1.3258830771   -0.7424169893    1.7203645988
H       -0.3720964428   -2.2212051447    1.8165116860
H        2.0773275769   -2.0992608200    2.7032934615
H        2.7121979769   -0.5426274981    3.2313462755
H        1.6549791699   -2.4690893696    0.1585779265
H        0.6313925782    0.5783786798    2.5488198041
H        3.1758876435   -1.4693204943   -1.5530940031
H        2.1712847927   -0.0127152510   -1.6082885513
H        1.5159263873   -1.5603068629   -2.1649747253
H       -1.9876751403   -0.5536116299    5.4449182486
H       -2.2153047357   -1.2475681168    3.8269844091
H       -1.8632402465    0.4955665142    4.0192638100
25   
torsion grid (90,)
C        0.2145713073   -0.8167492885    0.2096912388
C        2.5786168919   -0.7844873635    1.0714371337
C       -0.3141548790   -1.0080006089    1.6406083632
C        2.0547106346   -0.9859062453    2.5001790392
C        1.6300520687   -1.3840605138    0.0218688277
C        0.6445678486   -0.3943300155    2.6624442250
C        2.1439155793   -1.1560529401   -1.4032315716
C       -1.6640096706   -0.6432070773    4.3842163194
S        0.1616314287   -0.6436589038    4.4315034255
H       -0.4757131504   -1.2877052907   -0.5009832144
H        0.2261606525    0.2557489590   -0.0321093176
H        2.7011788459    0.2896948573    0.8714749058
H        3.5746549435   -1.2340776194    0.9772473232
H       -1.3093190810   -0.5598340377    1.7222870747
H       -0.4246156248   -2.0791555018    1.8550528659
H        2.0178599473   -2.0568222951    2.7347832685
H        2.7391434865   -0.5261574359    3.2226094436
H        1.5807462896   -2.4689339781    0.1995666382
H        0.7258054828    0.6873907390    2.4973443233
H        3.1422271143   -1.5869851212   -1.5398508490
H        2.2103217701   -0.0844553423   -1.6278784618
H        1.4774855931   -1.6109453770   -2.1449548168
H       -1.9872415082   -0.7415771260    5.4238966984
H       -2.0585103457   -1.4878579265    3.8158401784
H       -2.0645784684    0.2930981867    3.9853346675
25   
torsion grid (105,)
C        0.2192928438   -0.7417222478    0.2041437738
C        2.5793066330   -0.8155029547    1.0778648208
C       -0.3242109658   -0.8764071532    1.6361228059
C        2.0372214753   -0.9515468588    2.5079076905
C        1.6041408417   -1.3863154853    0.0365223864
C        0.6607602547   -0.2818327149    2.6441908343
C        2.1350089755   -1.2176793657   -1.3905864914
C       -1.6393470418   -0.7808850700    4.3734177208
S        0.1483698355   -0.4076028440    4.4259620616
H       -0.4911648663   -1.1917178761   -0.5002307130
H        0.2870135510    0.3234854088   -0.0591654689
H        2.7627895818    0.2450319964    0.8529925060
H        3.5491721868   -1.3219541951    1.0005095168
H       -1.2989642348   -0.3835889401    1.7056984454
H       -0.4811474839   -1.9378055542    1.8673034198
H        1.9410265682   -2.0114649844    2.7733422938
H        2.7415365001   -0.5106673788    3.2228264869
H        1.4963706929   -2.4629144647    0.2374664168
H        0.7935185207    0.7867884612    2.4363277946
H        3.1097782344   -1.7034707361   -1.5122153842
H        2.2588238714   -0.1563701506   -1.6385156822
H        1.4486578796   -1.6534005387   -2.1256382061
H       -1.9403183706   -0.8906034989    5.4187415044
H       -1.8492918404   -1.7172356783    3.8530729158
H       -2.2228364865    0.0303555571    3.9303162799
25   
torsion grid (120,)
C        0.2256289040   -0.6545705090    0.1867652385
C        2.5655039884   -0.8508107930    1.0941285783
C       -0.3441493341   -0.7307600147    1.6128610880
C        2.0010377309   -0.9207668494    2.5203709840
C        1.5709068822   -1.3850553485    0.0517656909
C        0.6626608854   -0.1768348259    2.6249167403
C        2.1292355223   -1.2790425062   -1.3709221453
C       -1.5713126864   -0.9378777027    4.3686217064
S        0.0926272190   -0.1829060379    4.3975855537
H       -0.5015339304   -1.0740740527   -0.5194223000
H        0.3616100413    0.3994002234   -0.0946803925
H        2.8124001173    0.1923602671    0.8491365945
H        3.5055513096   -1.4133805095    1.0392164182
H       -1.2871874292   -0.1771634904    1.6630977631
H       -0.5701692378   -1.7769244986    1.8527298752
H        1.8441446098   -1.9666658264    2.8126428001
H        2.7190707976   -0.5008787257    3.2334815988
H        1.3954965886   -2.4487473061    0.2730430353
H        0.8297997607    0.8805818573    2.3881331435
H        3.0743379745   -1.8250584563   -1.4688996216
H        2.3202725076   -0.2325623019   -1.6384183591
H        1.4272910275   -1.6879542059   -2.1066461092
H       -1.8902139551   -0.9576489695    5.4142334330
H       -1.5569034121   -1.9636586577    3.9941995476
H       -2.2905987253   -0.3440280268    3.8004368670
25   
torsion grid (135,)
C        0.2301123182   -0.5688519497    0.1619248483
C        2.5353789367   -0.8854074690    1.1216628246
C       -0.3731731748   -0.5877953035    1.5756982649
C        1.9438534703   -0.8893034093    2.5391383899
C        1.5307516501   -1.3821734274    0.0704410395
C        0.6436757158   -0.0796895090    2.6043522031
C        2.1226976934   -1.3418677819   -1.3420335746
C       -1.4577605348   -1.0882734083    4.3589590620
S        0.0004679245    0.0123969720    4.3453278636
H       -0.5052471182   -0.9548404518   -0.5548403447
H        0.4369828903    0.4700174464   -0.1323471075
H        2.8474078526    0.1361197094    0.8600763297
H        3.4417240199   -1.5027946444    1.0963656007
H       -1.2792365675    0.0270855153    1.6033992024
H       -0.6710964673   -1.6139786876    1.8213635219
H        1.7312624874   -1.9195450744    2.8531905048
H        2.6683668324   -0.4880196557    3.2554777940
H        1.2866554354   -2.4282385245    0.3103431385
H        0.8451902678    0.9683413310    2.3521904553
H        3.0349402940   -1.9455004625   -1.4084206303
H        2.3817901126   -0.3149392550   -1.6274525347
H        1.4121073216   -1.7242906681   -2.0836540015
H       -1.8447573779   -1.0365906741    5.3801388705
H       -1.1979699219   -2.1275603463    4.1416033044
H       -2.2386169041   -0.7493275382    3.6754727038
25   
torsion grid (150,)
C        0.2332006783   -0.5004430123    0.1240879242
C        2.4903499474   -0.9195367081    1.1582392588
C       -0.4098116546   -0.4727235539    1.5196198837
C        1.8613898659   -0.8702179536    2.5592625225
C        1.4930512485   -1.3798509440    0.0836040817
C        0.5993300882   -0.0007434387    2.5741543110
C        2.1292447988   -1.3910923589   -1.3100815325
C       -1.3220149120   -1.1951312257    4.3667911732
S       -0.1133874869    0.1711865763    4.2735631897
H       -0.4982840310   -0.8591364061   -0.6106164599
H        0.5011312963    0.5226769121   -0.1761931974
H        2.8608130317    0.0812137905    0.8924764644
H        3.3649093944   -1.5816366237    1.1673724999
H       -1.2883138881    0.1819537571    1.5228913436
H       -0.7589933996   -1.4824522393    1.7656012235
H        1.5947115900   -1.8855062600    2.8819687333
H        2.5829003553   -0.4891122125    3.2888590907
H        1.1881881278   -2.4084892456    0.3295997524
H        0.8554616644    1.0351709263    2.3191059930
H        3.0106279115   -2.0416838748   -1.3400620965
H        2.4496777526   -0.3831726858   -1.6009180471
H        1.4226582281   -1.7474463980   -2.0682993322
H       -1.7093918582   -1.1765855690    5.3887933014
H       -0.8565156463   -2.1692593409    4.1927945461
H       -2.1554259460   -1.0530091777    3.6757631011
25   
torsion grid (165,)
C        0.2400961207   -0.4427568328    0.0766455518
C        2.4380381336   -0.9491722171    1.1954179717
C       -0.4498447334   -0.3728707327    1.4477487120
C        1.7638999556   -0.8643077100    2.5738551939
C        1.4608323303   -1.3763738404    0.0890735574
C        0.5387390610    0.0571986249    2.5390653323
C        2.1460172115   -1.4286678136   -1.2802385879
C       -1.1795924758   -1.2791762702    4.3988050155
S       -0.2403983757    0.2746066020    4.1973438986
H       -0.4792409740   -0.7756298671   -0.6818110912
H        0.5639953312    0.5647534846   -0.2216029219
H        2.8584100135    0.0336180604    0.9371144647
H        3.2837829312   -1.6464347743    1.2392475707
H       -1.2964379860    0.3214961910    1.4192254754
H       -0.8548139274   -1.3631922534    1.6887838300
H        1.4495833150   -1.8683866255    2.8878484363
H        2.4737247629   -0.5064755085    3.3261478080
H        1.1029670075   -2.3885567872    0.3321332842
H        0.8628715475    1.0792866490    2.3040052853
H        2.9988942960   -2.1168418810   -1.2728412182
H        2.5199575130   -0.4383347492   -1.5675812507
H        1.4523060751   -1.7616732087   -2.0606184453
H       -1.5543841842   -1.2750536363    5.4254549642
H       -0.5429139682   -2.1584699141    4.2684321824
H       -2.0309818245   -1.3336122562    3.7167227095
25   
torsion grid (180,)
C        0.2491497097   -0.3917199792    0.0229505690
C        2.3824935838   -0.9839868687    1.2216190469
C       -0.4882938739   -0.2944638187    1.3676419623
C        1.6582416726   -0.8890849205    2.5736441516
C        1.4331189959   -1.3699576660    0.0764607786
C        0.4740699515    0.0832670902    2.5007573784
C        2.1677396002   -1.4414710668   -1.2661023803
C       -1.0304427079   -1.3314336364    4.4811711322
S       -0.3676941257    0.3321707420    4.1216326247
H       -0.4535047151   -0.6952040521   -0.7629267705
H        0.6221700598    0.6032072587   -0.2601073629
H        2.8456617150   -0.0143666244    0.9882833151
H        3.2014013706   -1.7106125468    1.2912722844
H       -1.2985252101    0.4395291224    1.3106918202
H       -0.9509652692   -1.2640787117    1.5909568645
H        1.2944368133   -1.8857005542    2.8537065670
H        2.3502205654   -0.5700632903    3.3596907716
H        1.0298523643   -2.3694530333    0.3002414920
H        0.8662752033    1.0886624240    2.2982885847
H        2.9933095642   -2.1613712257   -1.2307412748
H        2.5891699263   -0.4645567268   -1.5329091944
H        1.4922657078   -1.7442254306   -2.0742761459
H       -1.5473570505   -1.2492633170    5.4405786416
H       -0.2359385720   -2.0751884997    4.5791226538
H       -1.7513481233   -1.6556619350    3.7267302189
