19   
torsion grid (-165,)
C        2.1034239765   -0.9355856647   -0.0555942874
C        2.5438169359   -1.7474881919    2.1834130649
C        0.8799092505   -0.4094731555    0.3705224536
C        1.3305521542   -1.2175896028    2.6217987697
C        2.9573015801   -1.5946231497    0.8479873601
C        0.5198818037   -0.5517902513    1.7054311889
C        4.9661879296   -1.4758039191   -0.2755388391
C        7.0578009506   -1.0869905978   -1.2843200002
N        4.1933350111   -2.1551988809    0.4673395485
O        6.1094119332   -2.0190363168   -0.7475908749
F       -0.6702852536   -0.0432811011    2.1262057168
H        2.3787775252   -0.8664879020   -1.1045164133
H        3.1929193857   -2.2816978927    2.8706684553
H        0.2075898286    0.0917897335   -0.3192212717
H        1.0064939179   -1.3205593232    3.6529465120
H        4.7843563924   -0.4346638554   -0.5830037747
H        7.8422699127   -1.6855820970   -1.7472412462
H        7.4894433544   -0.4698159662   -0.4887636155
H        6.5972730564   -0.4432969879   -2.0432277114
19   
torsion grid (-150,)
C        2.0547924393   -0.9787079335   -0.0703348622
C        2.5823979511   -1.6963216714    2.1819414274
C        0.8384488977   -0.4527997986    0.3760192591
C        1.3771471525   -1.1655971133    2.6406916867
C        2.9482524495   -1.5900585542    0.8282701919
C        0.5263948702   -0.5474661714    1.7271491553
C        4.9107694524   -1.4913223286   -0.3759177365
C        7.0832503401   -1.1117377505   -1.1938234899
N        4.1810605064   -2.1463633731    0.4299236444
O        6.0360527040   -2.0411858624   -0.8849604479
F       -0.6561406304   -0.0392109561    2.1685713334
H        2.2939007113   -0.9474941584   -1.1298236826
H        3.2617670486   -2.1949222168    2.8667208772
H        0.1358730987    0.0118410693   -0.3091976275
H        1.0892944473   -1.2323681146    3.6854603652
H        4.7064169387   -0.4623727584   -0.7113848797
H        7.8236159404   -1.6642029231   -1.7726096934
H        7.5417663995   -0.7325144160   -0.2742307614
H        6.7072447048   -0.2716550288   -1.7913547127
19   
torsion grid (-135,)
C        2.0116080471   -1.0113653540   -0.0964476042
C        2.6388526494   -1.6509871171    2.1548670833
C        0.8022235918   -0.4976935432    0.3816185059
C        1.4411491468   -1.1304873193    2.6440417416
C        2.9499641863   -1.5773666787    0.7856293779
C        0.5434322724   -0.5576860323    1.7460223057
C        4.8618079938   -1.4790978822   -0.4989329935
C        7.1017292395   -1.1287347692   -1.1055084394
N        4.1797041650   -2.1203535941    0.3578220488
O        5.9797583419   -2.0198672092   -1.0398755129
F       -0.6321005766   -0.0608775546    2.2173344888
H        2.2103967445   -1.0068057979   -1.1646320427
H        3.3537067517   -2.1159034693    2.8271516318
H        0.0643331569   -0.0680860428   -0.2891345759
H        1.1943635263   -1.1716427672    3.7005499469
H        4.6283014565   -0.4607789774   -0.8492045818
H        7.8550530090   -1.6246571379   -1.7180351728
H        7.5004424036   -0.9467039896   -0.1017317672
H        6.8251605086   -0.1729487841   -1.5700798477
19   
torsion grid (-120,)
C        1.9616040174   -1.0365536264   -0.1243456119
C        2.6915699630   -1.6031689247    2.1158041641
C        0.7589757143   -0.5408130963    0.3879412772
C        1.5013485502   -1.0986973707    2.6390358152
C        2.9466683776   -1.5568743636    0.7341835943
C        0.5554256520   -0.5716777824    1.7627962171
C        4.8061430312   -1.4479874291   -0.6266149205
C        7.0992908474   -1.1649231197   -1.0138888815
N        4.1728080589   -2.0815373779    0.2716362807
O        5.9251371257   -1.9704090765   -1.1922992368
F       -0.6128966886   -0.0917465234    2.2673647497
H        2.1195523162   -1.0539505641   -1.1991267596
H        3.4431213281   -2.0338212211    2.7706814717
H       -0.0151200669   -0.1468000963   -0.2635539490
H        1.2968233970   -1.1183156371    3.7051312062
H        4.5343753085   -0.4445180687   -0.9920470297
H        7.8796526593   -1.6151225525   -1.6281571801
H        7.4036212874   -1.1697295656    0.0384005931
H        6.9273179666   -0.1307236784   -1.3421952343
19   
torsion grid (-105,)
C        1.9143626421   -1.0549377147   -0.1524774897
C        2.7445496877   -1.5443070026    2.0712690221
C        0.7159505319   -0.5861232678    0.3933346398
C        1.5587658222   -1.0647936086    2.6273724444
C        2.9461111485   -1.5228303749    0.6806052874
C        0.5644874134   -0.5898243907    1.7754053208
C        4.7559947415   -1.3871395169   -0.7462890398
C        7.0869984737   -1.2158020649   -0.9236945675
N        4.1702745457   -2.0213277250    0.1825543317
O        5.8819692663   -1.8812856654   -1.3327676555
F       -0.5992127323   -0.1349115338    2.3120367148
H        2.0340141535   -1.0919957400   -1.2316462527
H        3.5331797645   -1.9353676046    2.7071378333
H       -0.0941547121   -0.2328188137   -0.2373450510
H        1.3945129137   -1.0648686277    3.7005673796
H        4.4330890806   -0.4073705629   -1.1321740721
H        7.8923161591   -1.6395161437   -1.5247459491
H        7.2773138603   -1.3997332938    0.1393702263
H        7.0261104040   -0.1340745298   -1.1056206580
19   
torsion grid (-90,)
C        1.8512776679   -1.0820508068   -0.2132622381
C        2.7486788145   -1.4924234789    2.0000818412
C        0.6497771997   -0.6437966261    0.3504263497
C        1.5595682979   -1.0422761267    2.5738037251
C        2.9173935824   -1.4951833442    0.6052263848
C        0.5298713449   -0.6218527648    1.7355645217
C        4.6978043404   -1.3274064685   -0.8588354365
C        7.0517544887   -1.3436077236   -0.8521766905
N        4.1441722584   -1.9663656626    0.0859637084
O        5.8301475636   -1.7939617975   -1.4612008221
F       -0.6366718408   -0.1959739089    2.2892419102
H        1.9482178434   -1.1373118999   -1.2939045094
H        3.5647555446   -1.8415084998    2.6256909172
H       -0.1863861788   -0.3329281879   -0.2684538234
H        1.4200573973   -1.0240255017    3.6503315981
H        4.3237440002   -0.3795999640   -1.2740603794
H        7.8632435301   -1.7731978527   -1.4407823157
H        7.1130517768   -1.6970010026    0.1826917725
H        7.1237047430   -0.2482397097   -0.8752588097
19   
torsion grid (-75,)
C        1.8405999088   -1.0954659134   -0.2162543505
C        2.8018255953   -1.4078253664    1.9859489248
C        0.6277699330   -0.7119820308    0.3627316905
C        1.6005366970   -1.0120561669    2.5746028323
C        2.9434917090   -1.4321749753    0.5884657739
C        0.5331033533   -0.6673024695    1.7493326783
C        4.6925997433   -1.1941260100   -0.9061769026
C        7.0480760715   -1.4098275337   -0.7958031701
N        4.1804382920   -1.8520145481    0.0497062453
O        5.8295931748   -1.6080356154   -1.5350698374
F       -0.6445738436   -0.2945161090    2.3178051544
H        1.9201259255   -1.1669535647   -1.2973886644
H        3.6479033353   -1.6972200267    2.6021300768
H       -0.2358316237   -0.4603253887   -0.2452900346
H        1.4811374020   -0.9780822199    3.6531761083
H        4.2510232566   -0.2914411153   -1.3511151674
H        7.8462989736   -1.8317512199   -1.4075695023
H        7.0018353054   -1.9278980908    0.1671678268
H        7.2332110267   -0.3404280593   -0.6370168664
19   
torsion grid (-60,)
C        1.8402660856   -1.1139222259   -0.2241311751
C        2.8352972597   -1.3211694667    1.9750288578
C        0.6126074216   -0.7836872043    0.3564816907
C        1.6182579204   -0.9793435528    2.5653792485
C        2.9669335463   -1.3711760493    0.5772098851
C        0.5268631546   -0.7129765420    1.7425461495
C        4.6927480834   -1.0692333885   -0.9349314777
C        7.0253727702   -1.4887098954   -0.7709322081
N        4.2180555157   -1.7386388898    0.0335878207
O        5.8352371039   -1.4259960517   -1.5808191621
F       -0.6651239349   -0.3923532120    2.3134770155
H        1.9149847948   -1.2048765234   -1.3041933042
H        3.7011208017   -1.5479782609    2.5900352232
H       -0.2681248642   -0.5931961869   -0.2492493224
H        1.5058024161   -0.9266979180    3.6439737435
H        4.1949096577   -0.2148607866   -1.4116692671
H        7.8220554101   -1.8288676472   -1.4332776275
H        6.8971057837   -2.1930730740    0.0554346805
H        7.2672859861   -0.4937337804   -0.3811800698
19   
torsion grid (-45,)
C        1.8460868815   -1.1418739527   -0.2400487758
C        2.8571395781   -1.2253472014    1.9600272407
C        0.6042197161   -0.8602180131    0.3362636332
C        1.6248318925   -0.9330831816    2.5453950134
C        2.9873928748   -1.3125417443    0.5637738617
C        0.5182150760   -0.7519679074    1.7197771399
C        4.6919282747   -0.9568414348   -0.9608780266
C        6.9790385382   -1.5670963015   -0.7767640600
N        4.2537643753   -1.6297383062    0.0242122678
O        5.8426514092   -1.2556393968   -1.6087304483
F       -0.6880615192   -0.4787096763    2.2860144755
H        1.9225401657   -1.2614083112   -1.3172894701
H        3.7360992275   -1.3841858194    2.5777488180
H       -0.2871373050   -0.7357334027   -0.2710947599
H        1.5129499270   -0.8528713358    3.6223753509
H        4.1498033093   -0.1472729300   -1.4642254041
H        7.8224663290   -1.6782331542   -1.4586408138
H        6.8158249680   -2.4931057851   -0.2197728533
H        7.1647123610   -0.7457325476   -0.0779570286
19   
torsion grid (-30,)
C        1.8646038995   -1.1609042764   -0.2458785226
C        2.8713821635   -1.1391005515    1.9561477867
C        0.6084527153   -0.9262334238    0.3207150992
C        1.6244066843   -0.8949134132    2.5324582832
C        3.0115402906   -1.2546952442    0.5627397575
C        0.5125807541   -0.7887304250    1.7008979487
C        4.6962313810   -0.8580210409   -0.9742908288
C        6.9269399421   -1.6339728550   -0.7919674643
N        4.2943519107   -1.5199918344    0.0349957923
O        5.8617632714   -1.1025549606   -1.6064638821
F       -0.7076034008   -0.5613219806    2.2580831820
H        1.9491478370   -1.3033872375   -1.3197716576
H        3.7553939508   -1.2377506004    2.5791605895
H       -0.2859142284   -0.8606132551   -0.2914442229
H        1.5057369084   -0.7939818038    3.6069873934
H        4.1221079911   -0.0884483168   -1.5020371366
H        7.8152394755   -1.6140237265   -1.4235622454
H        6.7040191126   -2.6561765082   -0.4760844746
H        7.0688088759   -1.0061247344    0.0919129389
19   
torsion grid (-15,)
C        1.8948989334   -1.1774644788   -0.2458984912
C        2.8775374323   -1.0623128568    1.9641813931
C        0.6241522583   -0.9879052061    0.3050391104
C        1.6155767262   -0.8638144503    2.5250293017
C        3.0369727697   -1.2011429186    0.5747672065
C        0.5087419911   -0.8260241465    1.6810096900
C        4.7117369019   -0.7655467980   -0.9623087381
C        6.8815195745   -1.6928658949   -0.8173983898
N        4.3368703390   -1.4145009097    0.0667032107
O        5.8969935389   -0.9549659698   -1.5687942172
F       -0.7260961666   -0.6427345873    2.2222902974
H        1.9957323930   -1.3391449393   -1.3157242051
H        3.7592591250   -1.1060534391    2.5966298748
H       -0.2663257002   -0.9758969987   -0.3161476207
H        1.4821338806   -0.7456137509    3.5960858612
H        4.1187077118   -0.0212001993   -1.5036887198
H        7.7883257488   -1.6649782059   -1.4215301328
H        6.5536116322   -2.7233056429   -0.6590562592
H        7.0460703557   -1.2171171363    0.1529211208
19   
torsion grid (0,)
C        1.9306326406   -1.1932776307   -0.2363731791
C        2.8743006559   -0.9916286111    1.9838677580
C        0.6446290109   -1.0422689633    0.2908618692
C        1.5965887098   -0.8317028182    2.5207451153
C        3.0607559277   -1.1538380710    0.6001884543
C        0.5014874407   -0.8556555362    1.6609783830
C        4.7329785481   -0.6941380433   -0.9317586117
C        6.8473643530   -1.7441621553   -0.8562566679
N        4.3765082881   -1.3208580641    0.1178245291
O        5.9412780990   -0.8290772273   -1.5033530657
F       -0.7477496782   -0.7100256127    2.1805614919
H        2.0539647639   -1.3741658914   -1.3007705993
H        3.7470659708   -0.9858095793    2.6300538249
H       -0.2356964431   -1.0789390559   -0.3437075127
H        1.4422073078   -0.6958687899    3.5868679700
H        4.1264628243    0.0273895697   -1.4883215644
H        7.7561613572   -1.7255514522   -1.4576853582
H        6.4186934685   -2.7492315301   -0.8291554085
H        7.0509496346   -1.4162612614    0.1662870859
19   
torsion grid (15,)
C        1.9694267897   -1.2101752432   -0.2197453155
C        2.8617506313   -0.9228216900    2.0126548132
C        0.6688337253   -1.0920378429    0.2794927662
C        1.5689125421   -0.7951738841    2.5208459962
C        3.0808354751   -1.1107653425    0.6368368471
C        0.4921991490   -0.8779939664    1.6416196040
C        4.7605298299   -0.6388955777   -0.8829415358
C        6.8245832291   -1.7897165444   -0.9096967100
N        4.4116511691   -1.2363739995    0.1861075522
O        5.9927046642   -0.7254896575   -1.4132049104
F       -0.7712876000   -0.7646374873    2.1340923393
H        2.1196542797   -1.4125305384   -1.2768072690
H        3.7209759817   -0.8704463150    2.6746672035
H       -0.1970235899   -1.1750901749   -0.3704238088
H        1.3889687017   -0.6395875967    3.5802265355
H        4.1453142248    0.0612158399   -1.4574745593
H        7.7243667906   -1.7707162029   -1.5247113917
H        6.3079458162   -2.7483611504   -1.0045517255
H        7.0713689106   -1.6198096305    0.1413006487
19   
torsion grid (30,)
C        2.0145658806   -1.2240168432   -0.1885539306
C        2.8548118596   -0.8472006619    2.0515281165
C        0.7016570934   -1.1308833050    0.2829449058
C        1.5493135425   -0.7432880811    2.5314985051
C        3.1054486572   -1.0668670665    0.6856882826
C        0.4929730113   -0.8833073607    1.6348119437
C        4.7961460619   -0.5948261146   -0.8213603345
C        6.8111573255   -1.8254023408   -0.9955153450
N        4.4483357351   -1.1595188814    0.2653571443
O        6.0493074434   -0.6425835788   -1.3130686628
F       -0.7824210014   -0.7943054564    2.1004645355
H        2.1912355282   -1.4524045025   -1.2361555322
H        3.6993216054   -0.7504371408    2.7272910635
H       -0.1487763732   -1.2586963982   -0.3799529208
H        1.3442051360   -0.5630996888    3.5823646960
H        4.1711967674    0.0814039593   -1.4148807069
H        7.7127477773   -1.7649921780   -1.6054901876
H        6.2347583600   -2.7199646308   -1.2466350418
H        7.0678627240   -1.8490622609    0.0664649884
19   
torsion grid (45,)
C        2.0628441502   -1.2490209682   -0.1464824108
C        2.8499991163   -0.7638233214    2.0924110308
C        0.7392507377   -1.1721730876    0.2971449833
C        1.5333862222   -0.6742993333    2.5436401375
C        3.1321115053   -1.0294308961    0.7408941749
C        0.4983181627   -0.8768745222    1.6340194588
C        4.8389174239   -0.5775695164   -0.7541291963
C        6.8032504868   -1.8624226627   -1.1013439657
N        4.4851518410   -1.1000201503    0.3504853581
O        6.1126218140   -0.6006553129   -1.2083208609
F       -0.7873837866   -0.8033767214    2.0724965068
H        2.2653969414   -1.5141392859   -1.1805862725
H        3.6788245402   -0.6193716087    2.7789386010
H       -0.0948429012   -1.3486134947   -0.3752636318
H        1.3034736199   -0.4585513606    3.5825807423
H        4.2041900089    0.0601672291   -1.3808364375
H        7.7683308773   -1.7130486096   -1.5862423049
H        6.2369981892   -2.6418077089   -1.6203934623
H        6.9428896497   -2.1453750881   -0.0550941145
19   
torsion grid (60,)
C        2.1012576181   -1.2921469215   -0.0980538358
C        2.8151477216   -0.6781768373    2.1347389495
C        0.7648054559   -1.2323923420    0.3078464865
C        1.4850204537   -0.6034788858    2.5470771497
C        3.1392257005   -1.0001185906    0.8052198961
C        0.4807946926   -0.8793391876    1.6221207997
C        4.8749936369   -0.5678161432   -0.6616117019
C        6.7819966872   -1.8783005554   -1.1950937433
N        4.5041521288   -1.0522803513    0.4530959713
O        6.1710274187   -0.5794019619   -1.0685945719
F       -0.8173580192   -0.8213693878    2.0236267745
H        2.3390415786   -1.6003652829   -1.1124503327
H        3.6214200917   -0.4784986280    2.8341272007
H       -0.0461423648   -1.4648870910   -0.3757093662
H        1.2213765021   -0.3444240933    3.5679272202
H        4.2341740094    0.0176261633   -1.3334650374
H        7.8238668126   -1.6962444400   -1.4607788169
H        6.2909230852   -2.4472910311   -1.9922840351
H        6.7250445894   -2.4292074920   -0.2523919025
19   
torsion grid (75,)
C        2.1426243630   -1.3398502453   -0.0520304399
C        2.7764203427   -0.6141821706    2.1714526722
C        0.7938121380   -1.2909891532    0.3118725822
C        1.4332762169   -0.5479282119    2.5408968523
C        3.1462636914   -0.9873450392    0.8678816628
C        0.4632823188   -0.8855605096    1.6000390883
C        4.9217190875   -0.5763591984   -0.5565733537
C        6.7565063165   -1.8794781877   -1.2930174276
N        4.5231190619   -1.0314198359    0.5592115376
O        6.2379733985   -0.5930627580   -0.9099734515
F       -0.8470958578   -0.8367934431    1.9597543851
H        2.4169682387   -1.6866227982   -1.0444758819
H        3.5576105681   -0.3687380254    2.8845542224
H        0.0084701966   -1.5704723712   -0.3838317521
H        1.1338827337   -0.2495920987    3.5409259294
H        4.2833471719   -0.0487514875   -1.2787435515
H        7.8219778629   -1.7352805481   -1.4761903953
H        6.2712446490   -2.2316665902   -2.2115048362
H        6.6112813868   -2.6088627285   -0.4899726330
19   
torsion grid (90,)
C        1.8809598204   -0.8352554011   -0.0240766384
C        2.9005389549   -1.5944306657    2.0386422894
C        0.7324035845   -0.4587612467    0.6722586949
C        1.7490338668   -1.2357623839    2.7448612972
C        2.9844933910   -1.3834528966    0.6509933402
C        0.6894991363   -0.6640309375    2.0490948467
C        5.2708966182   -1.4581794982    0.3233013823
C        6.8804579587   -0.9544424270   -1.3185216803
N        4.1161385500   -1.7471000285   -0.1129324328
O        6.3981053713   -1.8736316025   -0.3243916265
F       -0.4329030602   -0.3126798367    2.7313041241
H        1.9405077234   -0.7031132632   -1.1002625807
H        3.7232671939   -2.0734438270    2.5619886425
H       -0.1228435542   -0.0235367392    0.1644355772
H        1.6646861412   -1.4033303925    3.8142813938
H        5.4646629881   -0.8786488796    1.2383478179
H        7.7849313592   -1.4004980734   -1.7338020178
H        7.1246356924    0.0181258407   -0.8712949786
H        6.1326208261   -0.8219050056   -2.1076923294
19   
torsion grid (105,)
C        1.8184445844   -0.8504230115   -0.0876951439
C        2.9064683249   -1.5308188200    1.9682546931
C        0.6905579029   -0.4553977360    0.6313984938
C        1.7754376481   -1.1522903384    2.6972100460
C        2.9459731900   -1.3686395665    0.5719748964
C        0.6912871931   -0.6109932367    2.0155297887
C        5.2208813693   -1.4485523225    0.1864874636
C        6.9733841977   -0.8602984059   -1.2547278948
N        4.0558812030   -1.7476888533   -0.2151452901
O        6.3268601732   -1.8823402856   -0.4802972812
F       -0.4117329850   -0.2409487635    2.7194716676
H        1.8437338995   -0.7563010635   -1.1692201079
H        3.7473181766   -1.9884043240    2.4819490163
H       -0.1828001178   -0.0428510947    0.1356409419
H        1.7254947784   -1.2822482224    3.7739952689
H        5.4352010939   -0.8170766708    1.0630872972
H        7.8816946099   -1.3083032475   -1.6592000209
H        7.2392900558    0.0039844900   -0.6308311728
H        6.3200903682   -0.5364669876   -2.0723452740
19   
torsion grid (120,)
C        1.7408697503   -0.8952966823   -0.1023003771
C        2.9219946214   -1.4924836157    1.9275969514
C        0.6373522422   -0.4929784469    0.6495495740
C        1.8162869851   -1.1051616936    2.6904229301
C        2.9027813148   -1.3761212492    0.5260803617
C        0.6970746016   -0.6022552481    2.0369239906
C        5.1603982310   -1.4410531245    0.0567984437
C        7.0541431260   -0.8503428608   -1.1895634322
N        3.9845686149   -1.7629872494   -0.2941099458
O        6.2421949970   -1.8925830647   -0.6294287595
F       -0.3822558544   -0.2245689684    2.7733329842
H        1.7207344410   -0.8362610406   -1.1863963294
H        3.7892543105   -1.9224899015    2.4209121885
H       -0.2618137034   -0.1094507803    0.1771277505
H        1.8125024409   -1.2000273533    3.7720435265
H        5.3991514725   -0.7688474768    0.8967303381
H        7.9500997686   -1.3328150060   -1.5812924807
H        7.3401543543   -0.1136684863   -0.4263880242
H        6.5161043907   -0.3478656980   -2.0007256541
19   
torsion grid (135,)
C        1.6691218454   -0.9326849134   -0.1089967614
C        2.9406100986   -1.4476420306    1.8881731640
C        0.5872242834   -0.5321120905    0.6744230752
C        1.8575152283   -1.0603202640    2.6830980832
C        2.8652137822   -1.3719646108    0.4854916318
C        0.7030331109   -0.5995819453    2.0609555773
C        5.1029547516   -1.4028823492   -0.0681397477
C        7.1267781044   -0.8562116522   -1.1232306662
N        3.9218253232   -1.7596605975   -0.3650331594
O        6.1634498771   -1.8604782262   -0.7758256169
F       -0.3548829145   -0.2225115329    2.8287158766
H        1.6058212033   -0.9046210273   -1.1926623597
H        3.8348199196   -1.8465791185    2.3591180079
H       -0.3376820207   -0.1808508170    0.2272386327
H        1.8980919174   -1.1239277551    3.7662718501
H        5.3596566172   -0.7028258045    0.7431642366
H        7.9953989836   -1.3841878630   -1.5173921729
H        7.4246716606   -0.2685694163   -0.2447208537
H        6.7187699616   -0.1886190160   -1.8897320719
19   
torsion grid (150,)
C        1.6036766810   -0.9737676458   -0.1055194752
C        2.9571534753   -1.3984247748    1.8577174285
C        0.5400831535   -0.5785946344    0.7052574774
C        1.8938467732   -1.0150828730    2.6809614342
C        2.8316002980   -1.3656941036    0.4567569457
C        0.7064675553   -0.6021678701    2.0880794974
C        5.0471887867   -1.3515279614   -0.1774320769
C        7.1794383086   -0.8821587503   -1.0525745229
N        3.8672295408   -1.7521797865   -0.4184891915
O        6.0886535254   -1.8021631159   -0.9122905035
F       -0.3331767424   -0.2290018128    2.8827289567
H        1.5015357245   -0.9779818963   -1.1865497099
H        3.8773034653   -1.7613593428    2.3074593812
H       -0.4089313105   -0.2638444799    0.2819921472
H        1.9747639833   -1.0460724132    3.7633277570
H        5.3151063277   -0.6295684880    0.6099882856
H        8.0058434062   -1.4485947346   -1.4821745206
H        7.4843723380   -0.4741759360   -0.0806026880
H        6.9046593623   -0.0626328846   -1.7253091042
19   
torsion grid (165,)
C        1.5677684986   -1.0252798428   -0.1018623088
C        2.9863069452   -1.3453191409    1.8350510155
C        0.5130180868   -0.6410186597    0.7257082948
C        1.9324639828   -0.9716711545    2.6748508764
C        2.8226496077   -1.3597896736    0.4376450855
C        0.7162089229   -0.6165816219    2.1035166768
C        5.0160598156   -1.2837125882   -0.2661865384
C        7.2299171869   -0.9036653194   -0.9743335199
N        3.8473382803   -1.7422908540   -0.4516708714
O        6.0447705234   -1.7090923934   -1.0317693572
F       -0.3140186858   -0.2535481312    2.9153288080
H        1.4375126111   -1.0650944814   -1.1791242946
H        3.9298522759   -1.6631468586    2.2704128117
H       -0.4567363546   -0.3704537474    0.3192091009
H        2.0432018116   -0.9666260790    3.7550026095
H        5.2816668487   -0.5340946760    0.4947576597
H        7.9996179182   -1.4571881679   -1.5121751347
H        7.5536998550   -0.7456511189    0.0612775732
H        7.0660569764    0.0635086730   -1.4619616909
19   
torsion grid (180,)
C        2.1296128221   -0.8793204080   -0.0316429457
C        2.4922786383   -1.7933304895    2.1814925162
C        0.9052000286   -0.3465887520    0.3834216974
C        1.2775981463   -1.2574816325    2.6091969093
C        2.9450132564   -1.5936158473    0.8653353048
C        0.5053148047   -0.5375060595    1.7008484814
C        4.9952411707   -1.4642030153   -0.1804422342
C        7.0048632471   -1.1149987342   -1.3556887486
N        4.1774438098   -2.1659708746    0.4894469986
O        6.1592738783   -2.0000503595   -0.6084420804
F       -0.6860904885   -0.0227261053    2.1106919455
H        2.4362387035   -0.7705212785   -1.0685018215
H        3.1116338896   -2.3688272881    2.8628225602
H        0.2624188600    0.1973694923   -0.3021204548
H        0.9235758685   -1.3967282005    3.6261342115
H        4.8412841375   -0.4082558022   -0.4488818868
H        7.8966023500   -1.6901175470   -1.6044576404
H        7.2908071089   -0.2420325905   -0.7580901940
H        6.5143559583   -0.7878855184   -2.2795467147
