15   
torsion grid (-165,)
C        0.7741067867   -0.0592665840   -0.9270520208
C        1.7843025957   -1.1289228503   -0.6023282212
C       -2.5531127840   -0.8268258915    1.2834013147
N       -0.4805053550   -0.0899118869   -0.2543445039
O        0.9409835758    0.8097220302   -1.7641079341
O       -0.3959991006    0.3172965329    2.3203892016
O       -0.1736820371   -2.0380161256    1.3915715052
S       -0.7574345063   -0.6999155592    1.3317670293
H        1.3295225123   -2.1207887213   -0.6160548260
H        2.5919107498   -1.0579997170   -1.3306820681
H        2.1856779477   -0.9776019947    0.4044133365
H       -2.8494014847   -1.2185251594    2.2581953492
H       -2.9783366725    0.1668413705    1.1353464257
H       -2.8343943133   -1.5121843259    0.4843342748
H       -0.9673278908    0.7949628614   -0.4074795336
15   
torsion grid (-150,)
C        0.8017285453   -0.0255763629   -0.8862019225
C        1.6998523139   -1.2159343867   -0.6701579736
C       -2.5151737630   -0.9257878770    1.2353219318
N       -0.4242728763    0.0480079974   -0.1646712719
O        1.0318330230    0.8647614206   -1.6851468604
O       -0.6131348791    0.5185514552    2.3728031260
O       -0.0237505096   -1.8222908536    1.5566237568
S       -0.7588472214   -0.5690817098    1.4056789637
H        1.1351525479   -2.1495911158   -0.6775485575
H        2.4527386440   -1.2089616967   -1.4583444900
H        2.1886402923   -1.1498630554    0.3056746124
H       -2.8419565857   -1.3048679473    2.2054369116
H       -3.0422876522   -0.0016816219    0.9949214817
H       -2.6446243889   -1.6769994409    0.4566700775
H       -0.8295874663    0.9781791737   -0.2836904561
15   
torsion grid (-135,)
C        0.8286478505    0.0090958523   -0.8412515080
C        1.5759167818   -1.2942243983   -0.7191716367
C       -2.4394502269   -1.0300480279    1.1838719182
N       -0.3698547869    0.1851624154   -0.0927580739
O        1.1556145247    0.9111795556   -1.5916567886
O       -0.8347260195    0.7010402615    2.3711628461
O        0.1075622788   -1.5833872516    1.7243909778
S       -0.7612870515   -0.4399208707    1.4597591491
H        0.8985421131   -2.1500310382   -0.7106924568
H        2.2682654828   -1.3570893695   -1.5588704457
H        2.1337716839   -1.3208256421    0.2200919210
H       -2.7887926502   -1.4219543167    2.1410163892
H       -3.0571293644   -0.1889431272    0.8678014939
H       -2.4137674622   -1.8139047757    0.4269752049
H       -0.6870031300    1.1527147118   -0.1732996612
15   
torsion grid (-120,)
C        0.8303772949    0.0292919070   -0.8192142813
C        1.4510976394   -1.3424995082   -0.7393257866
C       -2.3451411376   -1.1082785247    1.1289900613
N       -0.3104486384    0.3068195984   -0.0197046616
O        1.2165385705    0.9063672240   -1.5713825617
O       -1.0045602054    0.8032398257    2.3675820223
O        0.1920931514   -1.3989512553    1.8598120822
S       -0.7567608950   -0.3482399779    1.5022299479
H        0.6943002071   -2.1302107935   -0.7300663817
H        2.1107217591   -1.4579881448   -1.5993614872
H        2.0256243706   -1.4409033257    0.1844939284
H       -2.7169308065   -1.5260967526    2.0665218632
H       -3.0184030526   -0.3354623616    0.7578220138
H       -2.1924263235   -1.8936844455    0.3884219120
H       -0.5597719102    1.2954605136   -0.0694493418
15   
torsion grid (-105,)
C        0.8208757519    0.0460104723   -0.7994760307
C        1.3088124133   -1.3805927855   -0.7484648886
C       -2.2268133479   -1.1802430479    1.0711108388
N       -0.2506073307    0.4181665926    0.0487161830
O        1.2629979760    0.8886133692   -1.5602654154
O       -1.1596559119    0.8791681693    2.3490233070
O        0.2594625164   -1.2191370854    1.9940387329
S       -0.7486520717   -0.2654782844    1.5387757765
H        0.4784333316   -2.0919492104   -0.7608068031
H        1.9531184601   -1.5442409896   -1.6119998330
H        1.8674162609   -1.5541588496    0.1738397647
H       -2.6225236533   -1.6217260393    1.9877382842
H       -2.9409109176   -0.4791787219    0.6391354159
H       -1.9501958412   -1.9578061737    0.3585814150
H       -0.4354476117    1.4214165631    0.0274225821
15   
torsion grid (-90,)
C        0.7926085123    0.0491089266   -0.7989225463
C        1.2074830887   -1.4012870771   -0.7490951201
C       -2.1275341772   -1.2178747512    1.0242507763
N       -0.1712975318    0.4961060204    0.1302884365
O        1.2181377493    0.8505438207   -1.6125530287
O       -1.2576732038    0.9133717196    2.3464986774
O        0.2842213965   -1.1134389700    2.1065619317
S       -0.7377029554   -0.2144388619    1.5768258434
H        0.3405765702   -2.0634324060   -0.8386592057
H        1.8883504615   -1.5833706200   -1.5799504881
H        1.6951759511   -1.6301867760    0.2006454442
H       -2.5495260333   -1.6785671688    1.9194805106
H       -2.8554175442   -0.5638696008    0.5443111785
H       -1.7637432158   -1.9836248198    0.3390782504
H       -0.3473490441    1.4998245432    0.0986086692
15   
torsion grid (-75,)
C        0.6448704864   -0.2807877644   -1.2365110322
C        0.6005109882    0.7101579825   -2.3812748672
C       -0.3362703866   -2.7420469088    0.8841291498
N       -0.5720268797   -0.4386458719   -0.5606739815
O        1.6360558296   -0.9163621549   -0.9199617122
O       -2.0881487635   -0.7831100953    1.3911517629
O        0.3759087181   -0.3792366725    1.8800783799
S       -0.6734821627   -0.9890733350    1.0735014606
H        0.6822445727    1.7251804493   -1.9772388656
H        1.4477398909    0.5249786570   -3.0416217839
H       -0.3330622331    0.6431962382   -2.9479412167
H       -0.3793107396   -3.1714346692    1.8869033758
H       -1.1061344043   -3.1678939348    0.2410721016
H        0.6607219936   -2.8415185212    0.4545252029
H       -1.3531522644    0.1738705271   -0.7862016169
15   
torsion grid (-60,)
C        0.6310908291   -0.2773715501   -1.2053438361
C        0.5919617162    0.6530344576   -2.4013684726
C       -0.2867962992   -2.7077737072    0.8308173286
N       -0.5442268749   -0.2949004102   -0.4560703420
O        1.5986177364   -0.9595856284   -0.9069846286
O       -2.1495675092   -0.8514099696    1.3682901387
O        0.2705523316   -0.4033741788    2.0182671870
S       -0.7136529038   -0.9861906947    1.1148269446
H        0.7912613628    1.6755492170   -2.0631584251
H        1.3731278654    0.3569307122   -3.1016728875
H       -0.3797774120    0.6431158022   -2.9037879593
H       -0.3746183227   -3.1983062044    1.8022224354
H       -0.9971574958   -3.1254235971    0.1172178868
H        0.7368024579   -2.7387021222    0.4597673237
H       -1.3411528362    0.2816817996   -0.7130863364
15   
torsion grid (-45,)
C        0.6353199730   -0.2683837838   -1.1804135632
C        0.5659830421    0.6035818628   -2.4196798433
C       -0.2502490832   -2.6761283989    0.7914925315
N       -0.4745552943   -0.1575098801   -0.3478301917
O        1.5855354005   -0.9879336566   -0.9134215258
O       -2.1837477781   -0.8893417065    1.3124746335
O        0.1787586996   -0.4491860446    2.1535213589
S       -0.7316577909   -0.9815753230    1.1477286085
H        0.8444075998    1.6279966398   -2.1510385583
H        1.2804919151    0.2266124590   -3.1515921338
H       -0.4360873845    0.6270607092   -2.8579608624
H       -0.4304728205   -3.2237298375    1.7188016659
H       -0.8806236012   -3.0565775412   -0.0125973110
H        0.8038080835   -2.6792899930    0.5211862051
H       -1.3004463153    0.3516784204   -0.6507346564
15   
torsion grid (-30,)
C        0.6245537306   -0.2915195747   -1.1910449462
C        0.5332599486    0.5771200924   -2.4322598992
C       -0.2045778986   -2.6526907378    0.7848458985
N       -0.3991712232   -0.0681615232   -0.2733041111
O        1.5324852553   -1.0835384258   -0.9897794381
O       -2.2107778942   -0.9210624198    1.2255299274
O        0.0746898894   -0.4754124997    2.2515420482
S       -0.7485553522   -0.9804601956    1.1595623534
H        0.8642143409    1.5915388688   -2.1866829374
H        1.1957746621    0.1653409942   -3.1935876104
H       -0.4868816760    0.6381131429   -2.8229318692
H       -0.5077071035   -3.2384148921    1.6554141657
H       -0.7147553919   -3.0019620924   -0.1130422439
H        0.8748067768   -2.6435784214    0.6571478219
H       -1.2208934186    0.4519616101   -0.5714728024
15   
torsion grid (-15,)
C        0.5863393083   -0.3446723471   -1.2413130317
C        0.5137031792    0.5868452554   -2.4385126264
C       -0.1419213141   -2.6397135626    0.8224224098
N       -0.3433753574   -0.0487721275   -0.2477686436
O        1.4149405630   -1.2366345589   -1.1375446542
O       -2.2534507969   -1.0001451317    1.0866385774
O       -0.0955228665   -0.4564983690    2.3086653196
S       -0.7895382587   -0.9951485266    1.1438668965
H        0.9960933211    1.5364476860   -2.1847464412
H        1.0555739807    0.1286962746   -3.2659949025
H       -0.5157456765    0.7982149150   -2.7422732901
H       -0.5182851729   -3.2347548857    1.6578514895
H       -0.5342273186   -3.0070503628   -0.1252288631
H        0.9434590364   -2.5934303957    0.8119632430
H       -1.1115779815    0.5738900626   -0.4880891257
15   
torsion grid (0,)
C        0.6977395709    0.1303144410   -1.0115958903
C        0.5036592850    0.5752512589   -2.4509855364
C        0.6393728485   -0.2892440680    2.1363585998
N       -0.4443596299   -0.4307733947   -0.4484133833
O        1.7549436117    0.2557472293   -0.4117016031
O       -0.9491397486   -2.2484979553    1.3174123939
O       -1.9482697081    0.0680851409    1.5444444913
S       -0.8137735567   -0.7979040182    1.2151630644
H        0.0522261994    1.5732089484   -2.4602497314
H        1.4813189329    0.6308980905   -2.9299974837
H       -0.1448152821   -0.1018853459   -3.0137646455
H        0.3665934726   -0.5018114601    3.1730495087
H        1.4911651360   -0.8830087002    1.8146021560
H        0.8177717303    0.7731460891    1.9829310105
H       -1.3107077151   -0.3681236463   -0.9790880345
15   
torsion grid (15,)
C        0.7027355025   -0.0167289314   -1.0438007963
C        0.5153311781    0.5985807766   -2.4191497217
C        0.6051839130   -0.1971125793    2.1165300119
N       -0.4848344203   -0.4557445897   -0.4632870509
O        1.7908534519   -0.1187739384   -0.4979277808
O       -0.7529440961   -2.3211128163    1.3290742834
O       -2.0095636361   -0.1218795080    1.5100081833
S       -0.7873629392   -0.8684918355    1.2009202050
H        0.2151594398    1.6462885781   -2.3081444853
H        1.4685571874    0.5635573467   -2.9468170726
H       -0.2500240741    0.0814867663   -3.0044050496
H        0.3355405777   -0.3688555068    3.1612495170
H        1.5040323843   -0.7380999432    1.8341854166
H        0.6990593018    0.8682491539    1.9089954667
H       -1.3579986240   -0.1659603639   -0.8992662102
15   
torsion grid (30,)
C        0.6915403475   -0.0897071797   -1.0634287006
C        0.5387682487    0.5853151972   -2.4141406688
C        0.5649592987   -0.1333450868    2.1198605300
N       -0.5196603574   -0.3947991549   -0.4476226475
O        1.7741343163   -0.3396959091   -0.5559409148
O       -0.5897392826   -2.3494375270    1.2662155164
O       -2.0505804935   -0.2822669847    1.5270409655
S       -0.7677026795   -0.9046542929    1.1912801207
H        0.4070583197    1.6627196704   -2.2662544956
H        1.4523476377    0.4235796943   -2.9866565314
H       -0.3203626075    0.2063077660   -2.9742299986
H        0.3552951661   -0.3895067394    3.1606194873
H        1.5088958884   -0.5524547050    1.7808601924
H        0.5252091109    0.9461126784    1.9721859168
H       -1.3764377666   -0.0027648172   -0.8316238554
15   
torsion grid (45,)
C        0.6719266586   -0.1112308551   -1.0754310363
C        0.5663769942    0.5193002486   -2.4510001897
C        0.5741689436   -0.1691577396    2.1586374913
N       -0.5345136939   -0.1627629863   -0.3834217826
O        1.7109383287   -0.5591944147   -0.6152146967
O       -0.6712236637   -2.2684554435    1.1391731658
O       -2.0501979551   -0.1771127205    1.5950751112
S       -0.7961629360   -0.8176230115    1.1931769163
H       -0.0832385518    1.3996021181   -2.4561707683
H        1.5662911406    0.7965015054   -2.7850161074
H        0.1513423569   -0.2141527214   -3.1501794928
H        0.4195798473   -0.5554417486    3.1681541132
H        1.5000239374   -0.5403624046    1.7237000501
H        0.5235438384    0.9199171913    2.1485231518
H       -1.3551300987    0.3255755918   -0.7318410095
15   
torsion grid (60,)
C        0.6824955777   -0.0842160242   -1.0805341741
C        0.5570820990    0.4733548200   -2.4845002974
C        0.5464323209   -0.1668244504    2.2165189543
N       -0.4843058365    0.0088835612   -0.3232095102
O        1.7067296295   -0.5753035464   -0.6330798092
O       -0.5760067403   -2.2368276946    0.9975359084
O       -2.0616664694   -0.2561629372    1.5892415804
S       -0.7689495720   -0.8025325088    1.1713824621
H       -0.0241643475    1.3998943668   -2.5108911909
H        1.5564698042    0.6530553131   -2.8808683166
H        0.0528021586   -0.2639523260   -3.1182973680
H        0.4185732860   -0.6570231697    3.1836382274
H        1.4959178457   -0.4363515485    1.7558259343
H        0.4230997335    0.9124912068    2.3066358966
H       -1.3307843427    0.4169175474   -0.7112333807
15   
torsion grid (75,)
C        0.7043399475   -0.0665974633   -1.1002179575
C        0.5271552523    0.4324740397   -2.5193168066
C        0.5089434727   -0.1676904984    2.2867831411
N       -0.3989122135    0.1576704225   -0.2665175839
O        1.7172833307   -0.6031721939   -0.6847215111
O       -0.4613543799   -2.2008570399    0.8700154249
O       -2.0545132178   -0.3316633111    1.5347318230
S       -0.7219373177   -0.7925321534    1.1391665441
H        0.0190771459    1.4009773374   -2.5531570585
H        1.5067984695    0.5126362736   -2.9904193126
H       -0.0775174010   -0.2893204229   -3.0792591767
H        0.3744578904   -0.7279531669    3.2140195879
H        1.4906888859   -0.3550107122    1.8513861453
H        0.3220407824    0.8950457895    2.4391532454
H       -1.2628255006    0.5213957086   -0.6634815883
15   
torsion grid (90,)
C        0.6362955306   -0.4294057547   -1.0954554161
C        1.5969553324   -0.0959768051    0.0199861700
C       -1.8271033611   -0.2562549610    1.6171297303
N       -0.6210241360   -0.9695288138   -0.7493803119
O        0.8696315322   -0.2327031188   -2.2753832788
O       -0.0288394258   -2.1899443271    1.4559982442
O       -2.2874488129   -2.5147152254    0.3000671873
S       -1.1704046173   -1.6668828765    0.7100851395
H        1.8871344746   -0.9987179128    0.5613740896
H        2.4714866850    0.3798571487   -0.4225431200
H        1.1402330480    0.5860790161    0.7439955381
H       -2.2207080947   -0.6503951986    2.5560011616
H       -1.0195266536    0.4497352524    1.8109750851
H       -2.6208685959    0.1962289836    1.0229294374
H       -1.1895028816   -1.2485114281   -1.5484103270
15   
torsion grid (105,)
C        0.6624289702   -0.4394682273   -1.1004368248
C        1.6766086032   -0.1461870702   -0.0227970142
C       -1.9411230883   -0.2682272648    1.6351428494
N       -0.6375617786   -0.8397620933   -0.7057265408
O        0.8800168214   -0.3089377505   -2.2920197180
O        0.0215246320   -2.0466206959    1.4929807385
O       -2.1880491916   -2.5444493148    0.3043900412
S       -1.1491870717   -1.6115900465    0.7358761019
H        2.0121531352   -1.0763428662    0.4409161001
H        2.5194316162    0.3649119491   -0.4875885244
H        1.2536260611    0.4752852966    0.7712861063
H       -2.3250831762   -0.6982080127    2.5621764347
H       -1.1980374704    0.5009323621    1.8473630909
H       -2.7543782414    0.1210719136    1.0226954462
H       -1.2160597970   -1.1235442002   -1.4968889575
15   
torsion grid (120,)
C        0.6825897954   -0.4207346409   -1.0990094573
C        1.7826376039   -0.2269405769   -0.0861788080
C       -2.0889301628   -0.2943936935    1.6352564736
N       -0.6262469469   -0.7163664653   -0.6328880665
O        0.8346726076   -0.2871847353   -2.3003312807
O        0.0711697537   -1.8397633588    1.5911579308
O       -2.0251359308   -2.5953650898    0.3365570841
S       -1.1125007592   -1.5467701417    0.7878744598
H        2.1000639108   -1.1932414502    0.3122049796
H        2.6177294252    0.2567578804   -0.5928941659
H        1.4507965475    0.3749878427    0.7628689796
H       -2.4670586833   -0.7605056007    2.5471359447
H       -1.4439266262    0.5521927071    1.8716619063
H       -2.9115792654    0.0005875262    0.9836994602
H       -1.2479712456   -0.9443962242   -1.4097461109
15   
torsion grid (135,)
C        0.6949630722   -0.3941616333   -1.0929858128
C        1.8664298124   -0.3134618914   -0.1479400832
C       -2.2176621188   -0.3303251925    1.6225152863
N       -0.6090854339   -0.5854306447   -0.5539866538
O        0.7843847347   -0.2470465995   -2.2988594060
O        0.1080461083   -1.6230201840    1.6969858639
O       -1.8346134756   -2.6300540893    0.3791105446
S       -1.0674869012   -1.4751338846    0.8433475526
H        2.1353164053   -1.3127263651    0.2031970542
H        2.7029763432    0.1200569016   -0.6962502577
H        1.6328219702    0.2818829946    0.7365392823
H       -2.5918627333   -0.8317193422    2.5171289386
H       -1.6802941466    0.5817456705    1.8820259983
H       -3.0339788192   -0.1297411045    0.9280525152
H       -1.2736447937   -0.7520006566   -1.3115114932
15   
torsion grid (150,)
C        0.6970719164   -0.3331448954   -1.0800571346
C        1.9297673895   -0.4344625299   -0.2195719319
C       -2.3401564500   -0.3810005570    1.5819686038
N       -0.5814545621   -0.4516536888   -0.4631008985
O        0.7188108183   -0.1017322034   -2.2758512695
O        0.1348662780   -1.3407030519    1.8429959805
O       -1.5653197307   -2.6542688398    0.4730783913
S       -0.9980451884   -1.3829889551    0.9218696726
H        2.0905731863   -1.4700721783    0.0921068533
H        2.7771581761   -0.0952688143   -0.8153919999
H        1.8310694816    0.1575187759    0.6917375415
H       -2.7033260692   -0.9071978423    2.4667515279
H       -1.9460690839    0.6006565935    1.8435174288
H       -3.1308781580   -0.3111877413    0.8339701196
H       -1.2977579801   -0.5356300929   -1.1866535554
15   
torsion grid (165,)
C        0.6970837721   -0.2747087000   -1.0655531533
C        1.9502870561   -0.5588107348   -0.2788867799
C       -2.4268051476   -0.4423314456    1.5340042129
N       -0.5505304211   -0.3019705343   -0.3797798300
O        0.6818567355    0.0228871583   -2.2466232502
O        0.1350273869   -1.0598735588    1.9767272000
O       -1.2776299000   -2.6248263525    0.5572977188
S       -0.9235185634   -1.2727991233    0.9923496737
H        1.9908952129   -1.6163159494   -0.0003711271
H        2.8040406574   -0.3158361976   -0.9112035314
H        1.9738869488    0.0142048998    0.6495013045
H       -2.7591586786   -0.9802495084    2.4237275932
H       -2.1884645286    0.5944421854    1.7699416532
H       -3.1802156850   -0.5177233576    0.7486547641
H       -1.3104448215   -0.3072248022   -1.0624171191
15   
torsion grid (180,)
C        0.7489304416   -0.0849389146   -0.9570859176
C        1.8370595308   -1.0362673751   -0.5301782448
C       -2.5584030277   -0.7342410052    1.3256155372
N       -0.5273490054   -0.2302722473   -0.3468533389
O        0.8757941041    0.7707100286   -1.8144785754
O       -0.2032995302    0.1008570120    2.2300318290
O       -0.3423924747   -2.2346965836    1.2528922768
S       -0.7616274409   -0.8348037549    1.2514054488
H        1.4804814909   -2.0681142440   -0.5270159645
H        2.6798860671   -0.9161206400   -1.2104124452
H        2.1583680061   -0.8018927754    0.4901581330
H       -2.8340290740   -1.1473577741    2.2975278212
H       -2.8627777383    0.3115896814    1.2648593343
H       -2.9793103257   -1.3325908050    0.5176239820
H       -1.0950209996    0.5970033761   -0.5367205465
