23   
torsion grid (-165,)
C       -1.1266074678   -1.0273037448   -0.6866367497
C       -1.6147558810   -0.6827788617    0.7285169064
C       -2.8867493148   -1.3948124336    1.2640763177
C       -3.3577425413   -0.6048430309    2.5044401794
C       -4.0128734365   -1.3782332956    0.2156276587
C       -2.6171726737   -2.8435365583    1.7536689842
C       -2.0860577160   -3.8811657569    0.7551177829
H       -0.2259502990   -0.4479028227   -0.9189943327
H       -1.8767247103   -0.7742787725   -1.4427793873
H       -0.8780131665   -2.0824728117   -0.8089859623
H       -0.7995560725   -0.8610124321    1.4430588237
H       -1.8032021083    0.3984261568    0.7583047934
H       -4.2239338986   -1.0841788910    2.9748761213
H       -3.6467101123    0.4178206321    2.2359617896
H       -2.5617837341   -0.5409398547    3.2556523405
H       -4.9401844796   -1.7810900464    0.6393396682
H       -4.2177088865   -0.3553547244   -0.1218694966
H       -3.7675268241   -1.9732395222   -0.6685690613
H       -1.9208582215   -2.7910186654    2.6013208072
H       -3.5613327033   -3.2211774809    2.1683655926
H       -2.1304120828   -4.8813239080    1.2005224580
H       -2.6738230027   -3.9092715881   -0.1679595023
H       -1.0431618067   -3.6967980018    0.4848816392
23   
torsion grid (-150,)
C       -1.2488980020   -0.8558411091   -0.7062018784
C       -1.4978482949   -0.8020712603    0.8085981372
C       -2.7861856916   -1.4883884690    1.3549858915
C       -3.2300429784   -0.7253331562    2.6198453501
C       -3.9416629991   -1.4249233306    0.3380232906
C       -2.5148961018   -2.9567804343    1.7690769090
C       -1.9509962692   -3.8955385606    0.6953033121
H       -0.2923098810   -0.3775933852   -0.9451187002
H       -2.0271842341   -0.3217721588   -1.2594584562
H       -1.2111628316   -1.8777543990   -1.0929675035
H       -0.6314422220   -1.2205433106    1.3369390295
H       -1.5301052358    0.2573832874    1.0931480398
H       -4.0889820909   -1.2121214129    3.0965763972
H       -3.5190643550    0.3033729900    2.3767207094
H       -2.4202670093   -0.6797906184    3.3580712366
H       -4.8543802517   -1.8469598479    0.7745391042
H       -4.1600115239   -0.3892434598    0.0534189797
H       -3.7259192248   -1.9796845986   -0.5790890082
H       -1.8215578638   -2.9470518162    2.6209036958
H       -3.4540085513   -3.3802468322    2.1497643548
H       -1.8677207556   -4.9142033429    1.0898433168
H       -2.5918644292   -3.9400775741   -0.1912271053
H       -0.9513266526   -3.5896111087    0.3724178186
23   
torsion grid (-135,)
C       -1.2261238354   -0.7140709079   -0.7120781097
C       -1.4133725028   -0.8698273525    0.8034714373
C       -2.7506673478   -1.5094323070    1.3102693315
C       -3.2786195201   -0.6671946736    2.4888216889
C       -3.8492844988   -1.5170432983    0.2275907105
C       -2.5006589749   -2.9513652165    1.8150188036
C       -1.9553995148   -3.9407562349    0.7774068421
H       -0.2510467210   -0.2611360893   -0.9239189531
H       -1.9909838600   -0.0670873138   -1.1514607334
H       -1.2624006768   -1.6743944709   -1.2368315328
H       -0.5706475959   -1.4402418922    1.2116771494
H       -1.3233910215    0.1306570866    1.2439555737
H       -4.1941059937   -1.1001857421    2.9091395024
H       -3.5070770867    0.3549368242    2.1664866980
H       -2.5377230171   -0.6058097538    3.2952523935
H       -4.7638219837   -1.9717375174    0.6260243660
H       -4.1009629463   -0.4993699621   -0.0899438332
H       -3.5626688795   -2.0787820928   -0.6649054034
H       -1.7994592843   -2.9009509045    2.6589107584
H       -3.4402833680   -3.3466106651    2.2238745465
H       -1.7831720497   -4.9206651243    1.2356746942
H       -2.6527239077   -4.0868146760   -0.0535163329
H       -1.0017748468   -3.6040877084    0.3575522121
23   
torsion grid (-120,)
C       -1.0713529978   -0.6469907667   -0.7111218945
C       -1.1791790928   -1.1010391562    0.7507940263
C       -2.5454308749   -1.7112404091    1.2279750788
C       -3.0974714820   -0.8426843766    2.3760841973
C       -3.6130943831   -1.7495377585    0.1164308587
C       -2.3162938213   -3.1413767805    1.7784472185
C       -1.8631095262   -4.1862762003    0.7509791249
H       -0.0789184048   -0.2220866947   -0.8987958668
H       -1.8092604364    0.1228605750   -0.9582561091
H       -1.2101483721   -1.4770347637   -1.4111645694
H       -0.3780800280   -1.8237374917    0.9419712211
H       -0.9450340293   -0.2398505361    1.3873792343
H       -4.0570631603   -1.2273404663    2.7414820301
H       -3.2551083454    0.1902288975    2.0441133111
H       -2.4012752617   -0.8188608604    3.2228493779
H       -4.5242626243   -2.2307827111    0.4908670254
H       -3.8863003255   -0.7409452598   -0.2101486105
H       -3.2864654167   -2.3047188680   -0.7663994715
H       -1.5710902789   -3.0821047146    2.5829719890
H       -3.2452071649   -3.4891605047    2.2501362533
H       -1.6355849832   -5.1375765873    1.2439556250
H       -2.6378183285   -4.3827195613    0.0034173000
H       -0.9599392893   -3.8693890474    0.2178669827
23   
torsion grid (-105,)
C       -1.2288479713    0.4638164951   -0.0690452790
C       -1.0626667040   -0.7432991798    0.8635034633
C       -2.3098158666   -1.1728629239    1.7078630295
C       -2.0909685476   -0.7276754636    3.1679702042
C       -3.6277478600   -0.5616461009    1.1988205333
C       -2.4167158816   -2.7210470670    1.7124414570
C       -2.8243093496   -3.3751848080    0.3860720849
H       -0.2824867587    0.6808144973   -0.5768318432
H       -1.5219556957    1.3687695803    0.4748980105
H       -1.9823652554    0.2816357371   -0.8408103800
H       -0.7401822407   -1.5891140644    0.2457583206
H       -0.2293389395   -0.5510724417    1.5490986833
H       -2.9596509332   -0.9669158218    3.7927147533
H       -1.9242268080    0.3547001029    3.2297584687
H       -1.2163858499   -1.2254893897    3.6021233816
H       -4.4718745349   -0.9563271989    1.7765398366
H       -3.6337125696    0.5271546074    1.3096792860
H       -3.8151635322   -0.7876911906    0.1454608536
H       -1.4474281680   -3.1275393905    2.0310969426
H       -3.1380242340   -3.0186042780    2.4854302967
H       -2.7735895921   -4.4664887483    0.4656449439
H       -3.8492876477   -3.1153605224    0.1041859656
H       -2.1681066420   -3.0770103886   -0.4390278340
23   
torsion grid (-90,)
C       -1.1790598333    0.5029155364    0.0777434679
C       -1.1044524119   -0.8805825839    0.7369586497
C       -2.3410693331   -1.3139773959    1.5786117240
C       -2.1338510854   -0.8523293192    3.0351411522
C       -3.6573297751   -0.7272202344    1.0411932615
C       -2.4205684383   -2.8646880047    1.6028617517
C       -2.8484294770   -3.5506210123    0.2989695053
H       -0.2372643736    0.7326489293   -0.4326568613
H       -1.3559872277    1.2993701151    0.8099635541
H       -1.9783008412    0.5529540571   -0.6672015770
H       -0.9399429185   -1.6133184902   -0.0618012944
H       -0.2156511492   -0.9352170595    1.3770498809
H       -3.0110321492   -1.0792921846    3.6523950711
H       -1.9608848217    0.2292308164    3.0904821823
H       -1.2680513288   -1.3525072189    3.4835810582
H       -4.5106132825   -1.1473440932    1.5866106112
H       -3.6907969517    0.3597217220    1.1640429450
H       -3.8031432596   -0.9450822230   -0.0214083258
H       -1.4377197360   -3.2503138111    1.9058864519
H       -3.1188965951   -3.1621163048    2.3966606049
H       -2.7913356555   -4.6393815403    0.4051845579
H       -3.8797352625   -3.3022850048    0.0298847781
H       -2.2091206060   -3.2721088294   -0.5455473984
23   
torsion grid (-75,)
C       -1.0559143693    0.4839770205    0.3599396608
C       -1.1111628843   -1.0080297745    0.7148757304
C       -2.3064872407   -1.4577196215    1.5948339515
C       -2.0699480927   -1.0049464999    3.0492733542
C       -3.6344417152   -0.8666900733    1.0887784659
C       -2.3794922374   -3.0082801086    1.6053013582
C       -2.8034813136   -3.6913275655    0.2983715828
H       -0.1412106148    0.7086825087   -0.1994016938
H       -1.0580491005    1.1214111952    1.2508424426
H       -1.9031288079    0.7819063558   -0.2650002165
H       -1.1267246093   -1.5732904459   -0.2243551928
H       -0.1832459931   -1.2961804578    1.2256137458
H       -2.9169833243   -1.2806915079    3.6881352886
H       -1.9445034174    0.0808921046    3.1209365095
H       -1.1706122318   -1.4743775871    3.4644961354
H       -4.4821484446   -1.3118563795    1.6229288355
H       -3.6764443125    0.2150421229    1.2495733266
H       -3.7812660627   -1.0483053207    0.0189194267
H       -1.3968975731   -3.3944780488    1.9083866591
H       -3.0790081890   -3.3110319739    2.3959511620
H       -2.7801030692   -4.7802039659    0.4159390789
H       -3.8224446836   -3.4162790187    0.0086917181
H       -2.1408515680   -3.4410439947   -0.5362972856
23   
torsion grid (-60,)
C       -0.9946690284    0.4608204810    0.4601664176
C       -1.2383969348   -1.0452593654    0.6259548046
C       -2.3894238967   -1.4553775627    1.5778957602
C       -2.1204326794   -0.9235666581    2.9991821435
C       -3.7358225007   -0.8950484909    1.0807015080
C       -2.4566336250   -3.0026464312    1.6696538538
C       -2.7696096132   -3.7639469090    0.3746337272
H       -0.1722826235    0.6360537383   -0.2419871865
H       -0.7234818175    0.9413703726    1.4052771226
H       -1.8761023340    0.9748105228    0.0636150877
H       -1.4335792975   -1.4700301757   -0.3654881577
H       -0.3130573728   -1.5177135638    0.9828337259
H       -2.8967633167   -1.2649644752    3.6936236617
H       -2.1119195956    0.1703285068    3.0308545944
H       -1.1545343386   -1.2788200193    3.3777621388
H       -4.5650391501   -1.2904721538    1.6791035784
H       -3.7675368401    0.1961796164    1.1592829682
H       -3.9239634868   -1.1559563896    0.0339945410
H       -1.5001795650   -3.3641942690    2.0708072503
H       -3.2157546298   -3.2637141861    2.4189966533
H       -2.8135567385   -4.8406901559    0.5715103757
H       -3.7358925813   -3.4704531514   -0.0477803530
H       -2.0063231379   -3.6057844345   -0.3934190215
23   
torsion grid (-45,)
C       -0.8623558284    0.5731267072    0.5425406661
C       -1.2674006628   -0.9066216144    0.5059488395
C       -2.3400376283   -1.3511907630    1.5349054233
C       -2.0338602064   -0.7753745003    2.9307164036
C       -3.7296633073   -0.8463922396    1.0967342691
C       -2.3449852851   -2.8963110873    1.6500587135
C       -2.5837669472   -3.6821299196    0.3539761583
H       -0.1670432252    0.7959183616   -0.2741397604
H       -0.3621334006    0.8359953400    1.4790715038
H       -1.7249811764    1.2384624986    0.4260389832
H       -1.6221445854   -1.1528429190   -0.5014251737
H       -0.3639726143   -1.5118275281    0.6647070913
H       -2.7367951640   -1.1730957413    3.6717815591
H       -2.1189248820    0.3151585549    2.9492594406
H       -1.0211004593   -1.0400115669    3.2583500535
H       -4.5038507519   -1.1724805414    1.8012969128
H       -3.7601999123    0.2477278058    1.0595666813
H       -4.0027084248   -1.2162711238    0.1032618423
H       -1.3838669194   -3.2094517920    2.0798314864
H       -3.1116640963   -3.1821804908    2.3824926278
H       -2.5870403419   -4.7582606661    0.5587663009
H       -3.5472521765   -3.4349895973   -0.1032226074
H       -1.8026381815   -3.4940003194   -0.3890520650
23   
torsion grid (-30,)
C       -0.6814719374    0.4377380324    0.7555359840
C       -1.2913919870   -0.9465490212    0.4978028613
C       -2.3625332183   -1.4391267049    1.5165654566
C       -2.1172474125   -0.8661896610    2.9256969613
C       -3.7530175278   -0.9507261787    1.0566113947
C       -2.3384924315   -2.9835424953    1.6087561621
C       -2.5539901685   -3.7463797010    0.2950091177
H        0.0090637692    0.7013493248   -0.0531593629
H       -0.1179563978    0.4660945331    1.6921514563
H       -1.4443935176    1.2236604111    0.8006238646
H       -1.7203685303   -0.9723760813   -0.5101275343
H       -0.4641056094   -1.6693472629    0.4872543465
H       -2.8536418231   -1.2689248611    3.6305285568
H       -2.2051461015    0.2236922957    2.9437592164
H       -1.1220308171   -1.1305148882    3.3031784601
H       -4.5348181199   -1.2633482030    1.7590593750
H       -3.7801284814    0.1434488025    0.9974485941
H       -4.0149643350   -1.3381525577    0.0670667834
H       -1.3729231097   -3.2835343838    2.0379999011
H       -3.1032473347   -3.2995435474    2.3308609240
H       -2.4931833254   -4.8263348100    0.4678891663
H       -3.5372385074   -3.5412112823   -0.1400166194
H       -1.7976800188   -3.4917204945   -0.4541906529
23   
torsion grid (-15,)
C       -0.6245131164    0.2315922967    0.9559516723
C       -1.3768738993   -1.0229188436    0.4908790133
C       -2.4224575060   -1.6424960716    1.4793662391
C       -2.2666393786   -1.1026150979    2.9148959394
C       -3.8409699456   -1.2604148828    1.0044002223
C       -2.2676071009   -3.1819894086    1.5259077993
C       -2.4816267077   -3.9250066728    0.2006175872
H        0.0679441949    0.5621425545    0.1737605180
H       -0.0363462153    0.0441715215    1.8587438835
H       -1.3006312963    1.0679826418    1.1657934982
H       -1.8688825687   -0.8102223079   -0.4645396562
H       -0.6179117279   -1.7824613503    0.2650205525
H       -3.0220260508   -1.5535808826    3.5683602567
H       -2.3972193616   -0.0177625659    2.9601529305
H       -1.2841159710   -1.3416035353    3.3378709324
H       -4.6091141075   -1.6837225854    1.6628598995
H       -3.9656776610   -0.1711159671    1.0054491090
H       -4.0390441820   -1.6109548499   -0.0132585654
H       -1.2624218082   -3.4102146344    1.9054004068
H       -2.9705917443   -3.5805078207    2.2696478438
H       -2.2803183046   -4.9944166261    0.3259349498
H       -3.5107955164   -3.8270913556   -0.1585712696
H       -1.8173505709   -3.5566714159   -0.5880033864
23   
torsion grid (0,)
C       -0.4356850506    0.0440455739    1.0099781523
C       -1.3920208776   -1.0297621060    0.4715020518
C       -2.3933361615   -1.6894487267    1.4861366758
C       -2.2458999126   -1.1277890640    2.9147136611
C       -3.8373871428   -1.4132202877    1.0223343792
C       -2.1370329559   -3.2173066139    1.5648654349
C       -2.4182476091   -4.0226285969    0.2895685268
H        0.2107558310    0.4041717539    0.2018211963
H        0.2146321090   -0.3428038506    1.8008990204
H       -0.9692468914    0.9111287911    1.4118983540
H       -1.9618789970   -0.5920594868   -0.3560382928
H       -0.7800186868   -1.8156700816    0.0154606642
H       -2.9862119163   -1.5916650964    3.5762596576
H       -2.4088812194   -0.0461763398    2.9489106028
H       -1.2561309094   -1.3325321434    3.3359944185
H       -4.5668177495   -1.9141374446    1.6704957199
H       -4.0494471934   -0.3379322990    1.0494248036
H       -4.0078686684   -1.7550981809   -0.0033530783
H       -1.0909427686   -3.3697762414    1.8633166187
H       -2.7469113286   -3.6314136685    2.3788418786
H       -2.1227689103   -5.0685544247    0.4260802326
H       -3.4819599633   -4.0149258258    0.0323659935
H       -1.8655811003   -3.6366081361   -0.5735094621
23   
torsion grid (15,)
C       -0.3322736899   -0.0947264116    1.0672369855
C       -1.4638451525   -0.9425490299    0.4694602361
C       -2.4599805956   -1.6225796063    1.4690626848
C       -2.3587573109   -1.0306914694    2.8887446180
C       -3.9003977343   -1.4365165046    0.9603373916
C       -2.1217634696   -3.1346645253    1.5946462660
C       -2.3928188719   -4.0058968479    0.3612719493
H        0.2988622140    0.3035286588    0.2649698379
H        0.3157789379   -0.6783959919    1.7306598260
H       -0.7136542077    0.7560589650    1.6387454501
H       -2.0364768061   -0.2926133902   -0.2039908781
H       -1.0230126235   -1.7085178875   -0.1765275944
H       -3.1028211480   -1.4985175884    3.5433282138
H       -2.5498746763    0.0480671326    2.8965905945
H       -1.3736484844   -1.2010133057    3.3335175871
H       -4.6156255971   -1.9957923064    1.5756859236
H       -4.1853975634   -0.3785557350    0.9932913214
H       -4.0112965453   -1.7747274773   -0.0749565278
H       -1.0622248709   -3.2224477427    1.8712021685
H       -2.6882804704   -3.5480399876    2.4396499129
H       -2.0443041653   -5.0297460970    0.5351861720
H       -3.4613323558   -4.0593759044    0.1307331620
H       -1.8794802541   -3.6347421294   -0.5320701748
23   
torsion grid (30,)
C       -0.2645506155   -0.2013102206    1.1246081107
C       -1.5353693339   -0.8108209904    0.5176133012
C       -2.4920671352   -1.5573413862    1.4948045529
C       -2.4252479730   -0.9646199463    2.9153063826
C       -3.9337237908   -1.4478532274    0.9702921926
C       -2.0693926496   -3.0488218757    1.6141139420
C       -2.2857840042   -3.9314345795    0.3780698516
H        0.3536013124    0.2431871839    0.3368203645
H        0.3503942661   -0.9517351248    1.6351383014
H       -0.4951645028    0.5869272994    1.8463770929
H       -2.0973994288    0.0068143078    0.0466732632
H       -1.2611323567   -1.4833358030   -0.3017848007
H       -3.1718177543   -1.4427515906    3.5597074534
H       -2.6328836973    0.1120622252    2.9149968966
H       -1.4443032091   -1.1177121651    3.3748430701
H       -4.6189980636   -2.0729669415    1.5554002430
H       -4.2880685258   -0.4125390919    1.0328923198
H       -4.0076203616   -1.7581903347   -0.0771874527
H       -1.0085494916   -3.0820631896    1.8961386905
H       -2.6163959360   -3.4941856483    2.4557052365
H       -1.9001817481   -4.9403615122    0.5608307108
H       -3.3470945942   -4.0277647287    0.1288687973
H       -1.7708131010   -3.5432013244   -0.5068424739
23   
torsion grid (45,)
C       -0.2166598043   -0.3314673513    1.0312011036
C       -1.6264214295   -0.6768819597    0.5344600957
C       -2.5398169221   -1.4472066254    1.5239449824
C       -2.4608118194   -0.8300549019    2.9333181977
C       -3.9912872390   -1.3582046096    1.0193598023
C       -2.1043852488   -2.9322328940    1.6492766470
C       -2.2028112449   -3.7939524450    0.3840259173
H        0.3597216433    0.1497904409    0.2335813660
H        0.3403107858   -1.2223222915    1.3428933113
H       -0.2424975341    0.3588315191    1.8791496610
H       -2.1317019885    0.2632603358    0.2740438741
H       -1.5575263698   -1.2403895313   -0.4024548773
H       -3.2025335290   -1.2913983363    3.5955016976
H       -2.6628483910    0.2477559938    2.9092049251
H       -1.4762592719   -0.9774467135    3.3874291700
H       -4.6591667208   -1.9876029306    1.6195488090
H       -4.3585899098   -0.3273348468    1.0800450000
H       -4.0781962656   -1.6766891394   -0.0247114044
H       -1.0719574052   -2.9640968443    2.0195687724
H       -2.7154328970   -3.3955746246    2.4354044850
H       -1.8752603011   -4.8173320824    0.5971905646
H       -3.2288762889   -3.8518597243    0.0073750943
H       -1.5709937646   -3.4139855845   -0.4252097282
23   
torsion grid (60,)
C       -0.2523922666   -0.6867684635    0.7591251734
C       -1.7518883264   -0.7080201239    0.4379093364
C       -2.6615909323   -1.4548884582    1.4447776076
C       -2.5526485938   -0.8157219201    2.8425781584
C       -4.1186731258   -1.3251919649    0.9614090642
C       -2.2726106535   -2.9498792402    1.5748505959
C       -2.2570586750   -3.7685629410    0.2779965697
H        0.2952295141   -0.1390103446   -0.0154593287
H        0.1703136071   -1.6959724308    0.8054961388
H       -0.0457997809   -0.1948876984    1.7146056282
H       -2.1102171819    0.3277719667    0.3668356305
H       -1.8983366151   -1.1395304082   -0.5593209497
H       -3.2640586082   -1.2791373276    3.5359544323
H       -2.7749286438    0.2574309060    2.8053256530
H       -1.5523454041   -0.9373842841    3.2699335160
H       -4.8027300964   -1.8765379771    1.6172399656
H       -4.4338220080   -0.2753377326    0.9574506665
H       -4.2462177595   -1.7091067854   -0.0560256768
H       -1.2848121561   -3.0181962791    2.0466436482
H       -2.9707377526   -3.4176907236    2.2816524376
H       -2.0060295788   -4.8133828583    0.4907852408
H       -3.2303905943   -3.7624313480   -0.2229379845
H       -1.5138928659   -3.3934111023   -0.4330053792
23   
torsion grid (75,)
C       -0.3076002133   -0.7898405040    0.6736870248
C       -1.8231477458   -0.6188868739    0.5058794509
C       -2.7196944316   -1.4037208452    1.4999070896
C       -2.6855209092   -0.7153977976    2.8789720847
C       -4.1713718651   -1.3439067911    0.9828945138
C       -2.2722972757   -2.8746272659    1.6679603522
C       -2.2608807961   -3.7279646711    0.3928448381
H        0.2287915990   -0.1391135293   -0.0255053201
H        0.0125504131   -1.8168714264    0.4758023572
H        0.0257155267   -0.5271956702    1.6837121323
H       -2.0801550995    0.4450001325    0.5839991228
H       -2.0896890132   -0.9138839085   -0.5170531111
H       -3.3377085589   -1.2335125673    3.5915888206
H       -3.0267866522    0.3234702356    2.8068258535
H       -1.6756932331   -0.7078260881    3.3044234636
H       -4.8534956355   -1.8726751300    1.6592913336
H       -4.5134556760   -0.3048917710    0.9106758135
H       -4.2700105760   -1.7902886698   -0.0116032643
H       -1.2730780528   -2.8910515673    2.1192551913
H       -2.9370620691   -3.3479175359    2.4027012045
H       -1.8917577956   -4.7359020121    0.6112496981
H       -3.2623476900   -3.8336107743   -0.0355732908
H       -1.6133974890   -3.3021326346   -0.3804226601
23   
torsion grid (90,)
C       -0.2367371267   -0.9138631292    0.5323730422
C       -1.7311261700   -0.5633233188    0.5479405258
C       -2.6416691007   -1.3950075053    1.5020887786
C       -2.6940239767   -0.6938740138    2.8753963067
C       -4.0751259041   -1.3766237598    0.9301464512
C       -2.1649972381   -2.8523541111    1.6920086915
C       -2.2191330359   -3.7466043289    0.4448039753
H        0.3061562337   -0.2225500176   -0.1216643425
H       -0.0544364937   -1.9260986895    0.1634511780
H        0.2134215026   -0.8377983113    1.5292024262
H       -1.8555403587    0.4983727870    0.7906724333
H       -2.1046383945   -0.6764029033   -0.4780335995
H       -3.3363097601   -1.2403266868    3.5757639399
H       -3.0898953743    0.3228264517    2.7787788936
H       -1.6974024964   -0.6229235363    3.3285805376
H       -4.7701082848   -1.9154145889    1.5856523637
H       -4.4380319478   -0.3464862898    0.8355675360
H       -4.1251999227   -1.8332270819   -0.0630727438
H       -1.1439749308   -2.8438615688    2.0901376130
H       -2.7838735612   -3.3110106028    2.4743753803
H       -1.7450802825   -4.7134696322    0.6457378681
H       -3.2495131388   -3.9470969745    0.1361346970
H       -1.7023841319   -3.2974499777   -0.4093011576
23   
torsion grid (105,)
C       -0.2642222020   -0.9005621248    0.4148184915
C       -1.7196084932   -0.4525950350    0.6138294218
C       -2.6579798220   -1.3594313393    1.4844090809
C       -2.8558596955   -0.6798503221    2.8563143575
C       -4.0439078574   -1.4147470492    0.8067409927
C       -2.1235256208   -2.7940128435    1.7086681176
C       -2.1783448303   -3.7391796638    0.4985995559
H        0.2714623516   -0.1620184288   -0.1920890091
H       -0.1893647893   -1.8621608874   -0.0974782229
H        0.2742977731   -0.9877639317    1.3655017936
H       -1.7225736219    0.5581797428    1.0364776154
H       -2.1639335779   -0.3511433530   -0.3840197636
H       -3.5375283328   -1.2564425375    3.4923072353
H       -3.2756433552    0.3247310580    2.7366262286
H       -1.9038804823   -0.5819202995    3.3934704840
H       -4.7496581252   -2.0155644930    1.3934122655
H       -4.4639319488   -0.4067418582    0.7113148323
H       -3.9899203520   -1.8437327686   -0.1985197542
H       -1.0962070579   -2.7392596208    2.0850785518
H       -2.7099443427   -3.2473094493    2.5184990240
H       -1.6440790820   -4.6703489107    0.7167575937
H       -3.2085398517   -4.0063527994    0.2446928760
H       -1.7252943441   -3.3009834361   -0.3958051883
23   
torsion grid (120,)
C       -0.2270690033   -1.1141216577    0.1701736432
C       -1.6019767074   -0.5817730397    0.6001809477
C       -2.5835219363   -1.5320999939    1.3819746830
C       -2.8790913538   -0.8848057945    2.7522304992
C       -3.9143164217   -1.6213756699    0.6083932730
C       -2.0303546167   -2.9576996901    1.6476590710
C       -2.0554146472   -3.9520057075    0.4769954241
H        0.3419532979   -0.3104321880   -0.3106304047
H       -0.2981013997   -1.9347240843   -0.5473899853
H        0.3663934224   -1.4644728650    1.0208897264
H       -1.4313708703    0.3117803367    1.2111451760
H       -2.1135264970   -0.2203136263   -0.2995995025
H       -3.6219924827   -1.4624035966    3.3144722622
H       -3.2675648677    0.1325905767    2.6300985154
H       -1.9699359477   -0.8237761163    3.3631444421
H       -4.6293435611   -2.2785372807    1.1182523836
H       -4.3747976423   -0.6303456068    0.5231376906
H       -3.7689233583   -2.0052329411   -0.4064088432
H       -1.0105562409   -2.8796543887    2.0402811582
H       -2.6235637600   -3.3933178238    2.4622151346
H       -1.5569123123   -4.8846270331    0.7636128763
H       -3.0800885802   -4.2062921235    0.1894818551
H       -1.5500780850   -3.5705990666   -0.4139051187
23   
torsion grid (135,)
C       -0.5826926908   -1.0689736625   -0.2412908212
C       -1.7909525787   -0.4502707472    0.4761327716
C       -2.8188444187   -1.3827647530    1.2095694663
C       -3.1192363212   -0.7495779109    2.5851281691
C       -4.1231027977   -1.4537079692    0.3949396620
C       -2.2888504997   -2.8156015392    1.4992289841
C       -2.2847093504   -3.8302375800    0.3468795046
H        0.0841992011   -0.2708813529   -0.5863466962
H       -0.8694438537   -1.6506709778   -1.1223844639
H        0.0004501067   -1.7198027133    0.4165828722
H       -1.3861411275    0.2463338236    1.2204623875
H       -2.3388221826    0.1775463432   -0.2364976560
H       -3.9197869569   -1.2883407871    3.1052922071
H       -3.4341706389    0.2955057316    2.4799847713
H       -2.2291848060   -0.7673650901    3.2248607579
H       -4.8482661280   -2.1340548576    0.8575115150
H       -4.5889139328   -0.4637220666    0.3294319283
H       -3.9418204750   -1.8016470472   -0.6274166415
H       -1.2813157764   -2.7413119566    1.9262469958
H       -2.9123987049   -3.2341582668    2.3000812141
H       -1.8693433609   -4.7840574295    0.6912072779
H       -3.2982914578   -4.0300794379   -0.0141080954
H       -1.6876524436   -3.5027883052   -0.5064642356
23   
torsion grid (150,)
C       -0.6720957466   -1.0858665120   -0.3249566755
C       -1.7349314486   -0.4803929831    0.6005851828
C       -2.7961239588   -1.4242121482    1.2466217380
C       -3.1919874297   -0.8018034098    2.6020660368
C       -4.0380494406   -1.5123263280    0.3431097823
C       -2.2431632974   -2.8434834725    1.5659341643
C       -2.2076672259   -3.8796272130    0.4328011010
H        0.0120214226   -0.3000380528   -0.6643860213
H       -1.1081263294   -1.5432916790   -1.2194023258
H       -0.0716881619   -1.8449582279    0.1841719118
H       -1.1949210760    0.0181404987    1.4163724911
H       -2.2648651577    0.3194949607    0.0685098023
H       -4.0343977425   -1.3379770443    3.0543139392
H       -3.4881428830    0.2479302569    2.4861321504
H       -2.3525680856   -0.8361347450    3.3059137182
H       -4.7784796594   -2.2131872431    0.7464928833
H       -4.5196106616   -0.5314516943    0.2576660075
H       -3.7809383559   -1.8442054136   -0.6682493213
H       -1.2396245863   -2.7376149504    1.9980091830
H       -2.8627653265   -3.2624478996    2.3695013858
H       -1.7838109741   -4.8202717520    0.8022804099
H       -3.2133921573   -4.1012997055    0.0626145312
H       -1.6045251007   -3.5608760331   -0.4194016604
23   
torsion grid (165,)
C       -0.8064210618   -0.9838009392   -0.2948827472
C       -1.6959692935   -0.4540768633    0.8363863201
C       -2.8040780900   -1.3889114915    1.3926668721
C       -3.2734203040   -0.7815520890    2.7309329589
C       -3.9965246475   -1.4339227155    0.4212876384
C       -2.2729958075   -2.8185736002    1.7035652302
C       -2.2481010196   -3.8429017637    0.5588802712
H       -0.1195329175   -0.1983794380   -0.6293678663
H       -1.3882210456   -1.3007309605   -1.1671018222
H       -0.1972235667   -1.8317333838    0.0307977909
H       -1.0403822397   -0.1758607185    1.6726816176
H       -2.1743813561    0.4785175268    0.5095758909
H       -4.1415164382   -1.3209679658    3.1270278400
H       -3.5591682561    0.2704468493    2.6114539424
H       -2.4770531279   -0.8280181179    3.4828062345
H       -4.7778272368   -2.1132486815    0.7816536718
H       -4.4434793725   -0.4383191753    0.3189628782
H       -3.7015375324   -1.7689143013   -0.5779216457
H       -1.2667633285   -2.7259717765    2.1335680224
H       -2.8956575247   -3.2398048636    2.5033546006
H       -1.8213850009   -4.7878069427    0.9138591669
H       -3.2572911223   -4.0596957433    0.1952274790
H       -1.6533162270   -3.5143498574   -0.2958253626
23   
torsion grid (180,)
C       -0.6746810161   -1.0953689541   -0.7418664501
C       -1.4123458761   -0.6184508548    0.5159367003
C       -2.6002380297   -1.4682134388    1.0387687909
C       -3.1365547952   -0.7520563290    2.2963822797
C       -3.7336857597   -1.5148562881   -0.0022482647
C       -2.1620322669   -2.8985501490    1.4633059383
C       -2.0867171894   -3.9798712563    0.3745980292
H        0.0485196801   -0.3366375252   -1.0609521173
H       -1.3564545196   -1.2692982478   -1.5803061741
H       -0.1159129128   -2.0186322606   -0.5647178024
H       -0.6836879044   -0.5152440406    1.3310761998
H       -1.7934853753    0.3939766906    0.3259443998
H       -4.0295313797   -1.2545427194    2.6851791134
H       -3.4054514906    0.2875775208    2.0767621665
H       -2.3850650885   -0.7411806335    3.0950437841
H       -4.5880494937   -2.0885547817    0.3757173135
H       -4.0879398049   -0.5023175210   -0.2283382035
H       -3.4203228491   -1.9740521768   -0.9436240519
H       -1.1901492696   -2.8229112556    1.9689405198
H       -2.8653592102   -3.2537896047    2.2276288309
H       -1.7243816650   -4.9194187574    0.8067795928
H       -3.0715742718   -4.1809726516   -0.0582428959
H       -1.4149900798   -3.7142354279   -0.4445607078
