17   
torsion grid (-165,)
C        5.5112608458    0.9777722157    0.7481822427
C        5.9384632216   -0.3141498084    0.4298730644
C        4.1429128634    1.2496741243    0.7956836604
C        4.9956614437   -1.3032105488    0.1517897891
C        3.1905146843    0.2572307350    0.5322220437
C        3.6176096636   -1.0422933431    0.1832255455
C        1.4339957969   -1.9731226718   -0.4082976840
O        1.8376532899    0.5317132239    0.6260417235
O        2.8226401384   -2.1242894130   -0.0889136197
H        6.2276198051    1.7655324793    0.9623951727
H        6.9975671277   -0.5526902372    0.3927815255
H        3.7966692192    2.2496524785    1.0561967229
H        5.3013164603   -2.3134245450   -0.1052320584
H        1.2864683397   -1.2375076206   -1.2046550875
H        0.8491185146   -1.6815245123    0.4662850550
H        1.1169411919   -2.9582208539   -0.7567903155
H        1.7359095835    1.4624379766    0.8797192135
17   
torsion grid (-150,)
C        5.4997926179    0.9855900153    0.6833387035
C        5.9188064526   -0.3143016770    0.3882003008
C        4.1337639292    1.2571698296    0.7894678761
C        4.9700391700   -1.3172281727    0.1828658214
C        3.1789253171    0.2500341684    0.6069095702
C        3.5965430659   -1.0552350015    0.2702344447
C        1.4630289194   -1.9494514216   -0.4689620514
O        1.8307622120    0.5008781260    0.7737288441
O        2.7701686460   -2.1346439346    0.0927040632
H        6.2223754050    1.7818175957    0.8374377109
H        6.9766831544   -0.5481319523    0.3098900324
H        3.7965711997    2.2627307123    1.0397640030
H        5.2684490362   -2.3336377280   -0.0578304489
H        1.4937809735   -1.2603344892   -1.3197347634
H        0.7570887450   -1.5746907720    0.2742114073
H        1.1546164079   -2.9390191296   -0.8134163570
H        1.7219361460    1.4365362603    1.0058923699
17   
torsion grid (-135,)
C        5.4855847707    0.9839313410    0.6367260548
C        5.8939411404   -0.3176906707    0.3357538279
C        4.1266592647    1.2599814962    0.8126084939
C        4.9360686919   -1.3251309157    0.1942124127
C        3.1675895740    0.2483216027    0.6935081666
C        3.5720922900   -1.0602131621    0.3564437043
C        1.5181153621   -1.9548554163   -0.5250862477
O        1.8276678112    0.4853019007    0.9173481106
O        2.7113987012   -2.1253175196    0.2555986308
H        6.2145632200    1.7824348439    0.7419154722
H        6.9470918293   -0.5486734593    0.2036371752
H        3.8037288930    2.2693014634    1.0660792502
H        5.2224994201   -2.3447562704   -0.0475289296
H        1.7410310400   -1.4374322261   -1.4658097403
H        0.7556478536   -1.3989942752    0.0237092399
H        1.1631906769   -2.9645379809   -0.7427364959
H        1.7158948790    1.4203643137    1.1510347408
17   
torsion grid (-120,)
C        5.5889088278    1.1103710970    0.5503468976
C        5.9351317547   -0.2154007053    0.2673101480
C        4.2551081584    1.4559096126    0.7856949325
C        4.9348860761   -1.1882306651    0.1725710016
C        3.2601345082    0.4786564139    0.7137005952
C        3.5945020083   -0.8348563897    0.3326484996
C        1.6343198518   -1.6649557039   -0.7416052844
O        1.9669785434    0.8190128664    1.0408293373
O        2.6197030223   -1.8222478036    0.2976586674
H        6.3593319494    1.8736032401    0.6181081612
H        6.9753984708   -0.4924540217    0.1222745016
H        3.9717938183    2.4662632692    1.0666561380
H        5.1712497503   -2.2245309070   -0.0527781030
H        2.0857051446   -1.8642298183   -1.7208759130
H        1.1973844413   -0.6618202255   -0.7513441929
H        0.8582713542   -2.4062979925   -0.5408686511
H        1.5133923814    0.0048607890    1.3188820314
17   
torsion grid (-105,)
C        5.7116873548    1.1955776557    0.5846550755
C        6.0076164488   -0.1253788879    0.2299993974
C        4.4005197640    1.5739143949    0.8897347283
C        4.9784056152   -1.0703773439    0.1498671031
C        3.3769006878    0.6264673884    0.8215400262
C        3.6638659220   -0.6866619311    0.4072884478
C        1.8041044920   -1.5166313481   -0.7994874021
O        2.0985243779    0.9820140315    1.1713765774
O        2.6291501902   -1.6153485049    0.3776048607
H        6.5069188385    1.9336842902    0.6450788790
H        7.0316906756   -0.4205745000    0.0203874305
H        4.1599141947    2.5850947110    1.2052483216
H        5.1764915416   -2.1037142304   -0.1219730928
H        2.3735704828   -1.8123421671   -1.6882991130
H        1.4239145847   -0.4985455340   -0.9406642618
H        0.9707805200   -2.2066765261   -0.6514647832
H        1.6060534225    0.1549347211    1.3197620478
17   
torsion grid (-90,)
C        5.7087519717    1.1849110465    0.5838913193
C        5.9556015358   -0.1300709488    0.1722886008
C        4.4218006150    1.5876204710    0.9534479820
C        4.9007305923   -1.0481402962    0.1142141219
C        3.3700726613    0.6696634573    0.8981338025
C        3.6127708301   -0.6421538678    0.4561188835
C        1.8603672692   -1.5710843552   -0.8289849093
O        2.1098271956    1.0464806853    1.2788023346
O        2.5358232590   -1.5238337569    0.4413416522
H        6.5247075274    1.9010967056    0.6311381922
H        6.9611992598   -0.4413926331   -0.0953040695
H        4.2201630734    2.5983127534    1.2964290688
H        5.0635040948   -2.0775943396   -0.1941589288
H        2.5230454550   -1.9770554004   -1.6018476543
H        1.5221433585   -0.5733670747   -1.1337581050
H        1.0003266639   -2.2314513014   -0.6992397167
H        1.5815165918    0.2286481699    1.3312823309
17   
torsion grid (-75,)
C        5.7131613514    1.1825273255    0.5996356695
C        5.9086375928   -0.1171424934    0.1171618454
C        4.4505887813    1.6024831273    1.0279976261
C        4.8286944447   -1.0049818200    0.0557096601
C        3.3715952841    0.7166843927    0.9623604692
C        3.5652400166   -0.5835094915    0.4657657258
C        1.9156659702   -1.6597169448   -0.8549306002
O        2.1319053896    1.1127055093    1.3830913993
O        2.4529136628   -1.4199533229    0.4568709395
H        6.5502218648    1.8735143807    0.6518875799
H        6.8953453203   -0.4415021252   -0.2005201310
H        4.2863947661    2.6039192642    1.4152654161
H        4.9597247706   -2.0231996585   -0.3014390406
H        2.6383590220   -2.1943141898   -1.4812333880
H        1.6435273078   -0.7163148524   -1.3435545431
H        1.0260452320   -2.2777616629   -0.7172821883
H        1.5649492122    0.3197344854    1.3441905983
17   
torsion grid (-60,)
C        5.7130770271    1.1815398226    0.6355318130
C        5.8606914545   -0.0895430337    0.0692310744
C        4.4703252656    1.6073190874    1.1140289604
C        4.7553430060   -0.9437378183   -0.0212342622
C        3.3647910865    0.7587905789    1.0175897052
C        3.5121395072   -0.5159056423    0.4424066054
C        1.9543767120   -1.7562909073   -0.8706611072
O        2.1447275387    1.1651981159    1.4822967432
O        2.3686785517   -1.3059119297    0.4274084427
H        6.5697434873    1.8457596657    0.7107280957
H        6.8301486982   -0.4206102777   -0.2917687610
H        4.3401588321    2.5889843540    1.5603025494
H        4.8595756710   -1.9393731569   -0.4437638127
H        2.6750987586   -2.4640252465   -1.2941245391
H        1.8327096212   -0.9085410408   -1.5550678438
H        0.9969516458   -2.2616534186   -0.7295270579
H        1.5398951531    0.4099687674    1.3578288232
17   
torsion grid (-45,)
C        5.7207491388    1.1743920778    0.6699435032
C        5.8200003941   -0.0597681529    0.0208013106
C        4.4962258918    1.6044057340    1.1923362760
C        4.6881053157   -0.8753132522   -0.1069551653
C        3.3651322682    0.7977997237    1.0602862943
C        3.4643616684   -0.4426590759    0.4023405932
C        1.9850845004   -1.8399865434   -0.8616897172
O        2.1643867472    1.2111963581    1.5684924770
O        2.2928581521   -1.1834722719    0.3733887577
H        6.5976117478    1.8076356068    0.7731074418
H        6.7724809131   -0.3949486861   -0.3795194079
H        4.4000090974    2.5600472190    1.6995603163
H        4.7619404065   -1.8401707817   -0.6000458718
H        2.6317943406   -2.7097285386   -1.0221494611
H        2.0862491705   -1.1478180101   -1.7052326144
H        0.9504675765   -2.1782279011   -0.7793021226
H        1.5233810299    0.5019336493    1.3766383372
17   
torsion grid (-30,)
C        5.7505890978    1.1618576160    0.6891361521
C        5.8096664098   -0.0341816728   -0.0294913476
C        4.5396173595    1.5956070040    1.2420267357
C        4.6536402844   -0.8095965178   -0.1981667688
C        3.3864477908    0.8311006974    1.0728051984
C        3.4454080330   -0.3736105358    0.3443398022
C        2.0370305886   -1.9059140068   -0.8501037368
O        2.2006314914    1.2504687209    1.6123627971
O        2.2479352614   -1.0628393151    0.2839874482
H        6.6455228281    1.7632604358    0.8224046065
H        6.7491130454   -0.3726343256   -0.4569775634
H        4.4717731315    2.5236043297    1.8024084049
H        4.7017187910   -1.7428793819   -0.7504334631
H        2.6426868502   -2.8171919680   -0.7851919919
H        2.2711033594   -1.3746922827   -1.7797277903
H        0.9806873207   -2.1793804649   -0.8344316880
H        1.5303749640    0.5848951050    1.3731221610
17   
torsion grid (-15,)
C        5.7568929054    1.1389635524    0.7220951821
C        5.7877171869   -0.0175511729   -0.0580724522
C        4.5534752777    1.5747371491    1.2918790708
C        4.6122641987   -0.7526462176   -0.2751197717
C        3.3828296634    0.8514564725    1.0783810963
C        3.4137432647   -0.3160802575    0.2879014387
C        2.0594797835   -1.9570613497   -0.8243468192
O        2.2052817314    1.2742205649    1.6347441673
O        2.1926540815   -0.9507571952    0.1770018129
H        6.6664576871    1.7084410582    0.8912399358
H        6.7197369262   -0.3577019713   -0.5002269470
H        4.5062388084    2.4727319261    1.9011373147
H        4.6428461276   -1.6531696891   -0.8795035685
H        2.6645482720   -2.8387907010   -0.5820976308
H        2.3492990980   -1.5713260410   -1.8088007862
H        1.0051217397   -2.2369339794   -0.8342010620
H        1.5156399399    0.6439212509    1.3598788716
17   
torsion grid (0,)
C        5.7751712737    1.1160658746    0.7550536035
C        5.7877495302    0.0009498413   -0.0829489459
C        4.5748937993    1.5506492088    1.3331337315
C        4.5974364892   -0.6926556303   -0.3520646782
C        3.3904665213    0.8678963150    1.0709565178
C        3.4035185026   -0.2598286406    0.2234156127
C        2.0809442536   -1.9873474421   -0.7923782661
O        2.2164862386    1.2910618572    1.6351162318
O        2.1640761678   -0.8406418154    0.0491425180
H        6.6958276203    1.6535993017    0.9639450057
H        6.7164276001   -0.3384383333   -0.5326625678
H        4.5414563614    2.4161570296    1.9885595860
H        4.6152997338   -1.5588770942   -1.0047560307
H        2.6935903217   -2.8084350377   -0.4013951070
H        2.3950343920   -1.7488883320   -1.8155510184
H        1.0316801438   -2.2853525512   -0.7940834814
H        1.5158680682    0.6876069569    1.3301113147
17   
torsion grid (15,)
C        5.7716590293    1.0867024926    0.7918880839
C        5.7781619451    0.0163261700   -0.1033154527
C        4.5711259676    1.5122447919    1.3753270943
C        4.5803550034   -0.6396096367   -0.4260702382
C        3.3792512506    0.8641336957    1.0614568873
C        3.3863854908   -0.2191682988    0.1584837168
C        2.0768532534   -2.0185833970   -0.7421787272
O        2.2041190762    1.2783411461    1.6292491647
O        2.1373335572   -0.7548167649   -0.0846677664
H        6.6983340258    1.5955816722    1.0419643960
H        6.7076498413   -0.3148614353   -0.5574419733
H        4.5431564014    2.3420114388    2.0757027640
H        4.5908141645   -1.4688727238   -1.1256202115
H        2.6859392183   -2.7634623462   -0.2167211082
H        2.4104828105   -1.9390954341   -1.7836261382
H        1.0286134349   -2.3201221610   -0.7230874211
H        1.5009645964    0.6958812353    1.2905032207
17   
torsion grid (30,)
C        5.7788994488    1.0616163442    0.8230022117
C        5.7880718362    0.0423015690   -0.1316383241
C        4.5752904812    1.4693062734    1.4107030142
C        4.5879175755   -0.5768379215   -0.5090113893
C        3.3801301029    0.8535076321    1.0428869635
C        3.3900709402   -0.1776213948    0.0826056951
C        2.0725257745   -2.0316137349   -0.6822229069
O        2.2009505165    1.2493838865    1.6138231886
O        2.1392441779   -0.6779024554   -0.2300792027
H        6.7075075456    1.5437668676    1.1155254894
H        6.7210435388   -0.2732256295   -0.5897438764
H        4.5466547814    2.2584595854    2.1565088543
H        4.5947077129   -1.3639117999   -1.2565371612
H        2.6432097778   -2.6924803778   -0.0198320114
H        2.4476117940   -2.1263479706   -1.7077942554
H        1.0169484641   -2.3077919193   -0.6629248459
H        1.4997648035    0.6933434549    1.2283037842
17   
torsion grid (45,)
C        5.7582356714    1.0416052222    0.8472749036
C        5.7795232165    0.0835408517   -0.1705891271
C        4.5491232978    1.4170404140    1.4425557463
C        4.5834633904   -0.5047692084   -0.6018134931
C        3.3567143552    0.8275784568    1.0205143988
C        3.3790588312   -0.1406004534   -0.0010558990
C        2.0395221349   -2.0327997375   -0.6041905571
O        2.1705149950    1.1894607058    1.5975176141
O        2.1343117277   -0.6220237391   -0.3764191756
H        6.6839877406    1.5017100378    1.1816624171
H        6.7182931085   -0.2030867939   -0.6357529455
H        4.5131470793    2.1593439953    2.2346894690
H        4.5927630289   -1.2410826730   -1.4001217825
H        2.4937720120   -2.5910543100    0.2221900912
H        2.5209347947   -2.3171492699   -1.5464322697
H        0.9741122462   -2.2619901076   -0.6674405479
H        1.4758503275    0.6702253800    1.1518879120
17   
torsion grid (60,)
C        5.7614505288    1.0101355615    0.8644257169
C        5.7993001405    0.1277549465   -0.2209823659
C        4.5458582374    1.3397640468    1.4713532632
C        4.6108642128   -0.4321835262   -0.7044260291
C        3.3599373673    0.7759270303    0.9947137871
C        3.3991651204   -0.1158829352   -0.0918110449
C        2.0293703357   -2.0219803707   -0.5158100252
O        2.1655759883    1.0913219504    1.5809733384
O        2.1675164335   -0.5935820886   -0.5238761147
H        6.6816117825    1.4494999854    1.2399019781
H        6.7445553744   -0.1176078253   -0.6964437719
H        4.4990158199    2.0263624343    2.3116859544
H        4.6242085804   -1.1059617596   -1.5567937659
H        2.2620401625   -2.4288393277    0.4752628904
H        2.6818429951   -2.4882299391   -1.2618270494
H        0.9883949614   -2.2315213115   -0.7696525232
H        1.4782557502    0.6282259501    1.0663682868
17   
torsion grid (75,)
C        5.7711973909    0.9769664323    0.8741397171
C        5.8265308219    0.1736090779   -0.2711502759
C        4.5489436263    1.2541550541    1.4931798652
C        4.6477905214   -0.3643856806   -0.7997771636
C        3.3726072773    0.7130589203    0.9672297462
C        3.4298224994   -0.1039927625   -0.1745946705
C        2.0077334914   -1.9858223481   -0.4193847033
O        2.1692522406    0.9804310296    1.5597914807
O        2.2168095712   -0.5838637756   -0.6596824607
H        6.6841666183    1.3991328931    1.2853896278
H        6.7779844884   -0.0259219309   -0.7555546443
H        4.4894176301    1.8849574039    2.3754244446
H        4.6647563238   -0.9786932434   -1.6963428289
H        2.0655411327   -2.2108766321    0.6524499259
H        2.7497045166   -2.5887003287   -0.9545039392
H        1.0094971727   -2.2192208095   -0.7954180875
H        1.4877065218    0.5932550942    0.9789762791
17   
torsion grid (90,)
C        5.7716389205    0.9621374104    0.8814246828
C        5.8537340654    0.2303962909   -0.3091010186
C        4.5384410250    1.1744500280    1.5052298759
C        4.6919060516   -0.3086763327   -0.8734856752
C        3.3788056199    0.6386564986    0.9395389241
C        3.4657414610   -0.1212904436   -0.2394743789
C        1.9662046588   -1.9457711316   -0.3285069524
O        2.1627840017    0.8587723051    1.5294289486
O        2.2787593418   -0.6132944372   -0.7746197033
H        6.6709733573    1.3830641149    1.3229658613
H        6.8124181606    0.0852591007   -0.7986006598
H        4.4570254495    1.7593376292    2.4168598404
H        4.7238038326   -0.8746121507   -1.8008854170
H        1.9239430215   -1.9959702366    0.7662145859
H        2.7154420279   -2.6584460968   -0.6918385543
H        0.9896077139   -2.1934392429   -0.7498227556
H        1.4887742003    0.5569684973    0.8927645430
17   
torsion grid (105,)
C        5.7763274200    0.9666448361    0.8903901619
C        5.8886386683    0.2959123138   -0.3326332328
C        4.5324521783    1.1066991998    1.5137129887
C        4.7514665078   -0.2667476908   -0.9233719253
C        3.3969361784    0.5555373164    0.9162787969
C        3.5180186078   -0.1701973560   -0.2824334135
C        1.9159972458   -1.9129660975   -0.2701515809
O        2.1677382382    0.7369333640    1.4986974795
O        2.3655684820   -0.6819575933   -0.8688959308
H        6.6569412552    1.4023913442    1.3545991277
H        6.8526657071    0.2133597323   -0.8262351246
H        4.4215848588    1.6584327216    2.4428119556
H        4.8063077298   -0.7928062646   -1.8726745923
H        1.7949910920   -1.8127025633    0.8144124537
H        2.6295319281   -2.7189301048   -0.4775480681
H        0.9539820435   -2.1472814431   -0.7307221412
H        1.5004761077    0.5288613609    0.8204099895
17   
torsion grid (120,)
C        5.6526641564    0.8847166678    0.8516418380
C        5.7926304333    0.2892437919   -0.4067197093
C        4.3993222201    0.9453967677    1.4674838983
C        4.6811450161   -0.2897066474   -1.0274299406
C        3.2859514874    0.3873699318    0.8356668670
C        3.4429572282   -0.2981788962   -0.3840419204
C        1.7111531178   -1.9371449769   -0.3779597216
O        2.0457937315    0.5401227917    1.4134070092
O        2.3368908343   -0.8207642313   -1.0397255266
H        6.5128873066    1.3299821690    1.3440051587
H        6.7585090684    0.2755713821   -0.9035502276
H        4.2570874135    1.4562405336    2.4155497511
H        4.7592765601   -0.7657552124   -2.0010014154
H        1.4990047622   -1.7299535512    0.6752988030
H        2.3560205852   -2.8217177773   -0.4420490139
H        0.7792124059   -2.1264514035   -0.9144153047
H        1.3836316151    0.4645767916    0.7050768747
17   
torsion grid (135,)
C        5.5073985454    0.9068048156    0.7396407669
C        5.7155067866    0.3141300172   -0.5081520002
C        4.2322942017    0.8861107375    1.3119148419
C        4.6495257622   -0.3105593252   -1.1607907206
C        3.1584388300    0.2808471995    0.6501395752
C        3.3710510253   -0.3483398475   -0.5942151751
C        1.4871777732   -1.8454802125   -0.6709727052
O        1.8809402821    0.2968565300    1.1691729882
O        2.3747401550   -0.9332882459   -1.3362470080
H        6.3255926530    1.3894466641    1.2666109543
H        6.6992307695    0.3289367131   -0.9685889432
H        4.0597008053    1.3631895630    2.2762102952
H        4.7825299826   -0.7870022543   -2.1279666760
H        0.7322860768   -1.3163092935   -0.0864799813
H        2.0475344335   -2.5230609917   -0.0157905845
H        1.0101645604   -2.4229366946   -1.4658340401
H        1.8983052799    0.7747335187    2.0134338942
17   
torsion grid (150,)
C        5.5088651548    0.9535912620    0.7259952763
C        5.7258405538    0.3689820715   -0.5244259351
C        4.2445412462    0.8650767107    1.3131107665
C        4.6861540964   -0.3120611777   -1.1595768939
C        3.1922894812    0.2028145322    0.6700375062
C        3.4178305236   -0.4224374260   -0.5748217246
C        1.4214443908   -1.8023601810   -0.6652230043
O        1.9247612723    0.1681870065    1.2181880644
O        2.4713056613   -1.0764646440   -1.3203913930
H        6.3076872964    1.4799109265    1.2405068065
H        6.6992941596    0.4340561943   -1.0019885556
H        4.0585713242    1.3352470060    2.2784372052
H        4.8308324582   -0.7841958529   -2.1271661473
H        0.6330023671   -1.1353225010   -0.3123432609
H        1.8105159925   -2.3821584574    0.1786367906
H        1.0257266568   -2.4828698873   -1.4224055830
H        1.9454258858    0.6454042541    2.0626026328
17   
torsion grid (165,)
C        5.5010706126    1.0139834895    0.6997389795
C        5.7334583826    0.4117785217   -0.5397086523
C        4.2500641947    0.8704193050    1.3021802884
C        4.7212995438   -0.3317699755   -1.1456102987
C        3.2243248430    0.1375981348    0.6920572262
C        3.4631944623   -0.4955467662   -0.5469103626
C        1.3733806588   -1.7586333208   -0.6945652933
O        1.9762512521    0.0410737667    1.2814402830
O        2.5707346195   -1.2324165177   -1.2799113207
H        6.2765112497    1.5926000867    1.1932147948
H        6.6962844748    0.5141254160   -1.0321206203
H        4.0517564901    1.3466528492    2.2621719805
H        4.8783402155   -0.8158376602   -2.1053155948
H        0.6482430729   -0.9702091780   -0.4834518230
H        1.5889443189   -2.3088137128    0.2262565905
H        0.9714433833   -2.4432636083   -1.4443099264
H        1.9969634016    0.5382695496    2.1140987088
17   
torsion grid (180,)
C        5.4695454676    1.0726313742    0.6649185687
C        5.7164237131    0.4346279544   -0.5536897259
C        4.2384047274    0.8816712053    1.2937916496
C        4.7339952618   -0.3775483657   -1.1179104064
C        3.2461960281    0.0672658690    0.7330219824
C        3.4909982320   -0.5793901009   -0.4980250195
C        1.3326052845   -1.7272129159   -0.7097672052
O        2.0323400624   -0.1072973895    1.3754998019
O        2.6437688747   -1.4054912325   -1.1878579074
H        6.2195427088    1.7101030503    1.1239289452
H        6.6661381752    0.5660254023   -1.0643489783
H        4.0328704624    1.3730284014    2.2446378259
H        4.9009370561   -0.8844801679   -2.0640347928
H        0.7083980332   -0.8348793878   -0.6183687227
H        1.3715595801   -2.2421982714    0.2533140299
H        0.9156672427   -2.3932327500   -1.4678377008
H        2.0484701722    0.4126485472    2.1941754130
