12   
torsion grid (-165,)
C        1.1840586525    1.3286216032    3.4298952752
C        3.8864790496    0.4872699768    2.0751694422
C        2.8741529002   -0.6290571363    2.2701993840
F        3.6501265253    1.1884583959    0.8879885832
S        1.1120892563   -0.1258475417    2.3297118510
H        0.1471410858    1.6164362472    3.6194760780
H        1.6965241370    2.1680698213    2.9540226777
H        1.6571258432    1.0914367498    4.3876894953
H        3.8628932167    1.2123319346    2.8940053161
H        4.8947592292    0.0620642129    2.0099943831
H        2.9397563137   -1.3171727358    1.4223126479
H        3.1441169902   -1.1761622469    3.1812681489
12   
torsion grid (-150,)
C        1.2063082111    1.3575705389    3.3829259854
C        3.8594311136    0.4803043095    2.1426473683
C        2.8834294241   -0.6759523556    2.2654944732
F        3.5469676913    1.2959380108    1.0475596780
S        1.1114999538   -0.2336502638    2.4930337565
H        0.1699813873    1.6497866500    3.5699215016
H        1.6821662201    2.1280224295    2.7723748753
H        1.7160511364    1.2656873086    4.3463538410
H        3.8637924286    1.1162441100    3.0323260113
H        4.8712514319    0.0912357367    1.9817601486
H        2.9164177245   -1.2545456795    1.3379689576
H        3.2219264773   -1.3141915142    3.0893666857
12   
torsion grid (-135,)
C        1.2088886849    1.3816186329    3.3480184189
C        3.8554341196    0.4671480523    2.2004439781
C        2.8897519356   -0.7004037607    2.2525405620
F        3.5100042945    1.3627185154    1.1769100451
S        1.1339779394   -0.3187883597    2.6824133524
H        0.1692840470    1.6548284752    3.5458248357
H        1.6235482304    2.0785911845    2.6177433130
H        1.7627521601    1.4393893140    4.2889118261
H        3.8810975215    1.0337113305    3.1352687121
H        4.8637830841    0.0996525983    1.9799121623
H        2.8664153706   -1.1651547678    1.2629443646
H        3.2842858124   -1.4268619340    2.9708017122
12   
torsion grid (-120,)
C        1.1485650444    0.1699360421    0.3106476595
C        3.8600804258    0.2309445621    1.6698700260
C        2.8980939598   -0.5943416691    2.4990717553
F        3.5168477119    1.5923585558    1.7082885977
S        1.1583964889   -0.7538972120    1.8890410849
H        0.1043241693    0.1643545456   -0.0119903334
H        1.7475556607   -0.3183192397   -0.4621810741
H        1.4741770547    1.2019947721    0.4465565884
H        4.8703645287    0.1447064712    2.0846541095
H        3.8790887786   -0.0723575140    0.6195534066
H        3.3125142225   -1.6042002676    2.5859473049
H        2.8496875451   -0.1671172191    3.5046754905
12   
torsion grid (-105,)
C        1.1592835134    0.1256674355    0.2956048783
C        3.8481711463    0.2876892405    1.6988080224
C        2.8974085616   -0.5970971558    2.4788949082
F        3.5135714111    1.6419733305    1.8440809996
S        1.1196473321   -0.5707493565    1.9842612657
H        0.1120652101    0.1992223869   -0.0083727269
H        1.6770168839   -0.5255909285   -0.4139711636
H        1.5986171784    1.1249099302    0.2872404914
H        4.8662117642    0.1628334044    2.0841066476
H        3.8443490962    0.0637463916    0.6285121710
H        3.2696501723   -1.6266639177    2.4356173150
H        2.9137033208   -0.2918789336    3.5293518069
12   
torsion grid (-90,)
C        1.1507249284    0.0808223471    0.2863722694
C        3.8601577839    0.3381668785    1.7344496922
C        2.8887805624   -0.5810660302    2.4498183443
F        3.5767626435    1.6835670715    1.9993214653
S        1.1059325294   -0.3747949933    2.0534230518
H        0.1063871680    0.1626149124   -0.0248997438
H        1.6331439835   -0.6862664451   -0.3265263145
H        1.6363291836    1.0476906628    0.1360717303
H        4.8794934386    0.1424524672    2.0861620367
H        3.8306021724    0.2061633777    0.6491014823
H        3.1956240934   -1.6186035012    2.2727798533
H        2.9557571032   -0.4066849200    3.5280607483
12   
torsion grid (-75,)
C        1.1216790997    0.0210398670    0.2718455123
C        3.8942501041    0.3915427048    1.7799441296
C        2.8791328063   -0.5439849611    2.4124579396
F        3.7142810184    1.7073784505    2.2186475182
S        1.1138429870   -0.1794402357    2.0861507935
H        0.0748865024    0.0946000314   -0.0326243333
H        1.5671902290   -0.8447556407   -0.2277222546
H        1.6366499808    0.9356807926   -0.0317806768
H        4.9069551011    0.0852901326    2.0670451357
H        3.8245072484    0.3972888439    0.6881053200
H        3.1126334707   -1.5721884060    2.1103136288
H        2.9736870422   -0.4983897520    3.5017519028
12   
torsion grid (-60,)
C        1.0840913302   -0.0576321934    0.2487286092
C        3.9374692978    0.4526660756    1.8380206028
C        2.8733215699   -0.4938543902    2.3665026338
F        3.8716417264    1.6894443347    2.4876784199
S        1.1375281630    0.0016395718    2.0730374822
H        0.0379884814    0.0751974342   -0.0372668376
H        1.4270998220   -1.0270229503   -0.1260193453
H        1.6705145428    0.7451847532   -0.2052637199
H        4.9339759970    0.0366982481    2.0285955915
H        3.8304758532    0.6385921914    0.7649059781
H        3.0463679579   -1.4943666577    1.9514475897
H        2.9692208489   -0.5724845902    3.4537676115
12   
torsion grid (-45,)
C        1.0390048217   -0.1426475026    0.2369401479
C        3.9791487221    0.5190739034    1.8975191339
C        2.8844492056   -0.4504316805    2.3104879720
F        3.9671474631    1.6511762496    2.7200515614
S        1.1757096245    0.1440452873    2.0353886020
H        0.0272943240    0.1512108666   -0.0528913792
H        1.1809674555   -1.1998112727   -0.0071338803
H        1.7489246134    0.4663813468   -0.3295687178
H        4.9637622130    0.0487413368    2.0082059292
H        3.8587412647    0.8611511674    0.8646919071
H        3.0261404576   -1.3989010015    1.7789142408
H        2.9684054254   -0.6559268732    3.3815290987
12   
torsion grid (-30,)
C        0.9831140058   -0.2104938334    0.2289237107
C        4.0310609552    0.5664889414    1.9619181169
C        2.9015721332   -0.4087209657    2.2478200112
F        4.0173056863    1.6115941809    2.8932061768
S        1.2253174564    0.2818794860    1.9715726218
H        0.0052060627    0.1708779700   -0.0749453472
H        0.9855946159   -1.2989915018    0.1204199709
H        1.7422700121    0.2284113703   -0.4250805516
H        5.0030622424    0.0662386490    2.0531395029
H        3.9416812365    1.0111838693    0.9655400097
H        3.0303798593   -1.2909714244    1.6111053148
H        2.9531313246   -0.7334349140    3.2905150787
12   
torsion grid (-15,)
C        0.9144702811   -0.2681759794    0.2237068686
C        4.0931752229    0.5998011306    2.0315365545
C        2.9280545179   -0.3637173753    2.1708289480
F        4.0389776521    1.5708448760    3.0401447950
S        1.2909989900    0.4189425436    1.8750955321
H       -0.0454352049    0.1552621657   -0.0822921017
H        0.8228266024   -1.3574428290    0.2567533774
H        1.6699027004    0.0187831774   -0.5135258406
H        5.0475466999    0.0711243821    2.1454356803
H        4.0724013102    1.1217509258    1.0697528032
H        3.0618107811   -1.1780011915    1.4513505815
H        2.9249660373   -0.7951099988    3.1753474174
12   
torsion grid (0,)
C        0.8487173415   -0.3169667299    0.2283378256
C        4.1486255771    0.6228346919    2.0989893521
C        2.9598437945   -0.3190534207    2.0805169076
F        4.0288647395    1.5252340692    3.1662525981
S        1.3697284072    0.5490055671    1.7516600886
H       -0.0993950804    0.1317656494   -0.0786158401
H        0.6877078204   -1.3833552794    0.4088243951
H        1.5750930206   -0.1817144593   -0.5781363082
H        5.0812735311    0.0666425179    2.2522736488
H        4.2120263607    1.2099101722    1.1779116371
H        3.1177998885   -1.0678088379    1.2979426301
H        2.8894101898   -0.8424321131    3.0381776808
12   
torsion grid (15,)
C        0.7954643013   -0.3573594392    0.2449678086
C        4.1879880478    0.6384093871    2.1613403743
C        2.9922404276   -0.2760700196    1.9822210354
F        3.9924346437    1.4739390753    3.2716111030
S        1.4536240169    0.6635765603    1.6104132782
H       -0.1439426483    0.1049059527   -0.0685009553
H        0.5874858719   -1.3797054636    0.5724899328
H        1.4801718117   -0.3725742254   -0.6079294499
H        5.0955036444    0.0543623146    2.3540663378
H        4.3360877703    1.2815460546    1.2888776230
H        3.1947250348   -0.9586060946    1.1504434860
H        2.8479126683   -0.8783622747    2.8841340418
12   
torsion grid (30,)
C        0.7518903755   -0.3906023572    0.2737954989
C        4.2116950925    0.6484116656    2.2165113751
C        3.0278658439   -0.2343779719    1.8750086429
F        3.9381611380    1.4051589865    3.3658760689
S        1.5414914633    0.7604320807    1.4514908460
H       -0.1734328275    0.0845727209   -0.0611730198
H        0.5009363490   -1.3419892010    0.7512652954
H        1.3899660186   -0.5703006313   -0.5965310326
H        5.0951416638    0.0377255342    2.4345126994
H        4.4353066536    1.3503049171    1.4076216838
H        3.2939878579   -0.8539204717    1.0113937605
H        2.8066859616   -0.9013534446    2.7143627972
12   
torsion grid (45,)
C        0.7183436315   -0.4134496510    0.3103292808
C        4.2189903200    0.6518022896    2.2652162548
C        3.0683141873   -0.1990800959    1.7637979217
F        3.8562855905    1.3325468529    3.4360591656
S        1.6335822886    0.8350061623    1.2771499428
H       -0.1969060124    0.0659923988   -0.0451123947
H        0.4437537593   -1.2722341343    0.9297190512
H        1.2970665562   -0.7523464219   -0.5542543677
H        5.0791344132    0.0195163913    2.5114889138
H        4.5139766926    1.4033058173    1.5263560028
H        3.4162634669   -0.7598665041    0.8881756818
H        2.7708906968   -0.9171312777    2.5352091628
12   
torsion grid (60,)
C        0.7393032582    0.9469173132    3.7139517219
C        4.2063419589    0.3125660261    1.4867909634
C        3.1301537894    0.1832762600    2.5482639895
F        3.7277347522   -0.1046865705    0.2380095690
S        1.7495763433    1.3512385291    2.2495736309
H       -0.1478999881    1.5834927452    3.6763102931
H        1.2798687943    1.1521131758    4.6429343748
H        0.4203743042   -0.0993227147    3.6963799892
H        4.5462046501    1.3478070999    1.3803071514
H        5.0600296999   -0.3265520141    1.7373968151
H        2.7517429713   -0.8442391953    2.5705962151
H        3.5857926663    0.4038386261    3.5212185693
12   
torsion grid (75,)
C        0.7687749468    0.9872626283    3.7338019446
C        4.2130927205    0.3395987400    1.5186259961
C        3.0752215714    0.0830389250    2.4877125146
F        3.8292675947    0.0133148525    0.2099117055
S        1.6466942007    1.1822971023    2.1455048692
H       -0.1401635413    1.5905875857    3.6723770422
H        1.3740884183    1.3465553672    4.5714947627
H        0.4839823800   -0.0548989263    3.9048789934
H        4.5124766254    1.3922193555    1.5199265295
H        5.0745996407   -0.2890620447    1.7695106696
H        2.7677624265   -0.9660939782    2.4268878463
H        3.4434262162    0.2816296736    3.5011004088
12   
torsion grid (90,)
C        0.8044694633    1.0296617189    3.7420987034
C        4.2043715147    0.3713463340    1.5575318114
C        3.0322845020   -0.0232639059    2.4351711196
F        3.9056529822    0.1250844435    0.2087837510
S        1.5496786617    1.0018813820    2.0747510124
H       -0.1170612466    1.6122714917    3.6672989139
H        1.4672343846    1.5114657661    4.4669673940
H        0.5517109273    0.0221938900    4.0843436861
H        4.4364068305    1.4362687973    1.6525415499
H        5.0885175311   -0.2264236230    1.8066096506
H        2.8037228762   -1.0829780608    2.2851470629
H        3.3222347728    0.1289410473    3.4804886275
12   
torsion grid (105,)
C        0.8511852317    1.0730557752    3.7360963606
C        4.1798681910    0.4049842035    1.6069034770
C        2.9944084204   -0.1298524455    2.3871097243
F        3.9608997847    0.2443202374    0.2303103911
S        1.4537816310    0.8130551644    2.0302984115
H       -0.0833455123    1.6341466295    3.6568291790
H        1.5621775392    1.6588479309    4.3258416603
H        0.6453773836    0.1237394954    4.2381992935
H        4.3346449423    1.4719585176    1.7922690609
H        5.0897812578   -0.1540170195    1.8549472378
H        2.8438934491   -1.1864226573    2.1471252863
H        3.2165508814   -0.0473665506    3.4558032002
12   
torsion grid (120,)
C        0.9109211057    1.1147178483    3.7162290547
C        4.1379790141    0.4398991740    1.6664727527
C        2.9573436492   -0.2306891446    2.3421808063
F        4.0018915304    0.3627517057    0.2729741187
S        1.3598987915    0.6228731649    2.0137595532
H       -0.0345438300    1.6585024624    3.6463468997
H        1.6622276804    1.7785345763    4.1535032012
H        0.7655075903    0.2426807487    4.3597562321
H        4.2058100301    1.4991943133    1.9322001873
H        5.0734812858   -0.0701229324    1.9263951584
H        2.8784750641   -1.2693127042    2.0088535825
H        3.1302312883   -0.2425799313    3.4230617357
12   
torsion grid (135,)
C        0.9813816715    1.1552535324    3.6806088287
C        4.0822014251    0.4707553690    1.7377093017
C        2.9219610004   -0.3246074749    2.3067739590
F        4.0138358327    0.4896569605    0.3383444215
S        1.2779643289    0.4451086585    2.0227844199
H        0.0236669943    1.6794763656    3.6327511364
H        1.7568334387    1.8763950739    3.9547835079
H        0.9159745625    0.3732766884    4.4424418830
H        4.0675181736    1.5094758399    2.0824055581
H        5.0385146230    0.0056633384    2.0066727025
H        2.9027466114   -1.3272887372    1.8709560116
H        3.0666245378   -0.4467163335    3.3855015522
12   
torsion grid (150,)
C        1.0506064037    1.1940834273    3.6320005490
C        4.0201855988    0.4938823429    1.8156307160
C        2.8944488127   -0.4104070680    2.2854643409
F        3.9844801967    0.6314204236    0.4229031868
S        1.2124731821    0.2803578639    2.0584701566
H        0.0713536653    1.6787673800    3.6177803210
H        1.8163890732    1.9687566289    3.7319928125
H        1.0956016937    0.5166469879    4.4898390943
H        3.9448956377    1.4968765065    2.2478891637
H        4.9939202826    0.0590261781    2.0723141115
H        2.9256591440   -1.3583710616    1.7410501035
H        3.0392095095   -0.6445903285    3.3463987266
12   
torsion grid (165,)
C        1.1037864847    1.2408366267    3.5722440207
C        3.9708382762    0.4991151191    1.9014893710
C        2.8768443802   -0.4877688141    2.2737453855
F        3.9225912155    0.7937477553    0.5347805397
S        1.1659923171    0.1406434108    2.1160530147
H        0.0849215320    1.6315886032    3.6274656568
H        1.7911842613    2.0858021777    3.4777147204
H        1.3180797365    0.6900038054    4.4931975908
H        3.8779052591    1.4442903574    2.4455225225
H        4.9567268902    0.0639354183    2.1050028835
H        2.9381772082   -1.3586420556    1.6145741273
H        3.0421756388   -0.8371031233    3.2999434498
12   
torsion grid (180,)
C        1.1481937995    1.2917345969    3.4994436318
C        3.9280841289    0.4913623016    1.9935461572
C        2.8669513645   -0.5617433728    2.2668369774
F        3.8149012547    0.9928083760    0.6928506276
S        1.1303823492    0.0100438277    2.1992198359
H        0.1078234445    1.5830537195    3.6625558870
H        1.7112389542    2.1771879540    3.1940942811
H        1.5500814265    0.8994080453    4.4388362215
H        3.8556999541    1.3398048012    2.6808171857
H        4.9253412027    0.0450603601    2.0860804029
H        2.9393950740   -1.3434474212    1.5047583259
H        3.0711302470   -1.0188239073    3.2426937483
