22   
torsion grid (-165,)
C        1.6004146289   -0.7491881363    0.5973985181
C        0.5306782217   -0.5017689084    1.3664392265
C        0.9957661460    2.0162257140    1.8558845680
C       -0.4940898473    1.7840712078    2.0382308175
C        0.4931155580    0.6690961286    2.3122956839
C       -0.6895728868   -1.3931044116    1.3516318712
C        0.7223016918    0.2472351530    3.7657293840
N        1.5038429612    2.0882494141    5.0316342860
O        0.3726680364    1.2297174729    4.7466298430
H        1.6337771203   -1.6037114095   -0.0751110166
H        2.4722420725   -0.0998408346    0.6155917939
H        1.3662990890    2.0992753038    0.8389162133
H        1.5169897296    2.6321981162    2.5801153419
H       -0.9828401892    2.2394841084    2.8941179422
H       -1.1020985735    1.7138633626    1.1404226563
H       -0.8951400229   -1.8110859775    2.3440972036
H       -1.5805686323   -0.8228912599    1.0637632162
H       -0.5709926998   -2.2261606081    0.6532696439
H        1.7657511088   -0.0552017026    3.9048490109
H        0.0780602658   -0.6058205748    4.0040086584
H        1.6648583911    1.9370372559    6.0310925200
H        1.1086200773    3.0286720377    4.9588631063
22   
torsion grid (-150,)
C        1.5352852808   -0.8007733860    0.4962106341
C        0.5292523361   -0.5202439279    1.3367018927
C        1.1255058902    1.9768165566    1.8185356007
C       -0.3607827785    1.7936626774    2.0653668407
C        0.5975555554    0.6427224901    2.2897164378
C       -0.7258215319   -1.3592783670    1.3950797127
C        0.8925252482    0.2050312471    3.7312241420
N        1.2360721169    2.1479400744    5.0310144733
O        0.3465329507    1.0370744944    4.7594740911
H        1.4925468513   -1.6481338406   -0.1848156398
H        2.4304098458   -0.1847012177    0.4616724876
H        1.4525532186    2.0611134805    0.7866730203
H        1.6943613170    2.5629881212    2.5328004940
H       -0.8080629547    2.2532158414    2.9412114498
H       -1.0089668793    1.7465670326    1.1945632557
H       -0.9040662759   -1.7487670849    2.4041938961
H       -1.6040553581   -0.7559833494    1.1366662711
H       -0.6751323166   -2.2087027904    0.7083132035
H        1.9735013104    0.1034626446    3.8762232436
H        0.4276754711   -0.7682162019    3.9168102495
H        1.4188803853    2.0584377297    6.0335454133
H        0.6331315628    2.9685615584    4.9342612353
22   
torsion grid (-135,)
C        1.4418586251   -0.8276054304    0.4178613067
C        0.5146139232   -0.5145846839    1.3339726758
C        1.2443418527    1.9597177358    1.7641174148
C       -0.2371576815    1.8362452637    2.0513635328
C        0.6822477552    0.6508719585    2.2711261004
C       -0.7551917622   -1.3156757445    1.4993899618
C        1.0172585267    0.2236701551    3.7106410885
N        0.9474967962    2.1426794709    5.0725690884
O        0.2959367277    0.8876813944    4.7530015213
H        1.3182315552   -1.6754650897   -0.2525574833
H        2.3499885251   -0.2401060289    0.3081201557
H        1.5531776242    2.0246003480    0.7252299058
H        1.8416241093    2.5356081697    2.4646226545
H       -0.6487118996    2.3338504796    2.9226070150
H       -0.9103535735    1.7895828552    1.1996895978
H       -0.8643508152   -1.6882697533    2.5247182604
H       -1.6329210150   -0.6883285078    1.3041446712
H       -0.7833441078   -2.1730105811    0.8212339989
H        2.0924844194    0.3268586612    3.8908912892
H        0.7505593161   -0.8285581271    3.8460051702
H        1.1893294219    2.0362753038    6.0611018750
H        0.1834678589    2.8217849092    5.0500699745
22   
torsion grid (-120,)
C        1.3546037190   -0.8489802659    0.3630125966
C        0.5043980940   -0.5001845797    1.3385721997
C        1.3649061609    1.9395805755    1.6781762930
C       -0.1070299158    1.9016104626    2.0175414327
C        0.7560796215    0.6743234070    2.2453427913
C       -0.7645831775   -1.2711004054    1.6154935095
C        1.1316453525    0.2647880303    3.6810206593
N        0.6449716042    2.0659913280    5.1153507551
O        0.2657972945    0.7219131491    4.7258425627
H        1.1631950318   -1.7061104190   -0.2790371580
H        2.2654249590   -0.2862324396    0.1750804220
H        1.6472261633    1.9603248054    0.6302300329
H        2.0089614149    2.5089337438    2.3422933263
H       -0.4510532319    2.4610082471    2.8789448497
H       -0.8122333299    1.8565493585    1.1919633355
H       -0.8041395233   -1.6120597669    2.6569060020
H       -1.6417962200   -0.6297921060    1.4685974681
H       -0.8591810577   -2.1451392207    0.9651719637
H        2.1564288110    0.5788145424    3.9052459143
H        1.0893803750   -0.8246455187    3.7670986921
H        0.9764249801    1.9497470274    6.0773152151
H       -0.2542158705    2.5455394264    5.1960799790
22   
torsion grid (-105,)
C        1.7430976208   -0.5172016954    0.3834101759
C        0.6551132985   -0.5658752631    1.1641166518
C        0.8931930012    1.8251752346    2.1615336423
C       -0.5807495374    1.5023103194    2.0954047564
C        0.4290289410    0.3885032020    2.3057255422
C       -0.4224102575   -1.6085452746    0.9816766881
C        0.5534928027   -0.2729630249    3.6870835252
N       -1.0754958151    0.6662355767    5.1121839185
O       -0.6741572213   -0.5205640705    4.3860762436
H        1.8925783439   -1.2279688762   -0.4264528251
H        2.5168883653    0.2319898126    0.5289648227
H        1.3927109602    2.1219786742    1.2451764139
H        1.2533735075    2.3205278027    3.0589327693
H       -1.2005710490    1.8007465662    2.9319047118
H       -1.0609805892    1.5472759764    1.1215825077
H       -0.5769050801   -2.1810573102    1.9040275018
H       -1.3826119344   -1.1303423079    0.7536197726
H       -0.1806818292   -2.3083791670    0.1768509122
H        1.2068483078    0.3214837601    4.3337967438
H        1.0008980951   -1.2646177681    3.5744221282
H       -1.0411619273    0.3667294048    6.0908365385
H       -2.0696698454    0.7488482214    4.8887169103
22   
torsion grid (-90,)
C        1.6641556176   -0.5577671858    0.3597817306
C        0.6185200818   -0.5493187994    1.1977338699
C        1.0050928821    1.8547430987    2.1050945720
C       -0.4847628244    1.6057159694    2.1367600069
C        0.4797714011    0.4469466582    2.3177861757
C       -0.4899563809   -1.5718841387    1.1111223671
C        0.6602628448   -0.1610063486    3.7107236591
N       -1.2518251679    0.4386520529    4.9613856350
O       -0.5352662420   -0.6512003656    4.3366231194
H        1.7499404388   -1.3026269559   -0.4283551749
H        2.4658919875    0.1719883502    0.4359107196
H        1.4586943765    2.0977519168    1.1502768639
H        1.4481199704    2.3612249914    2.9581195771
H       -1.0370713100    1.9508475032    3.0028774464
H       -1.0183598426    1.6542632277    1.1912519607
H       -0.5907759376   -2.1196648415    2.0551173827
H       -1.4539101974   -1.0774255335    0.9392962648
H       -0.3182325155   -2.2911598296    0.3053090269
H        1.1258204859    0.5664416951    4.3839999226
H        1.3099035516   -1.0389008487    3.6452894416
H       -1.3637513749    0.1153073807    5.9256100838
H       -2.1831828874    0.3837359348    4.5428557545
22   
torsion grid (-75,)
C        1.5972847344   -0.6347971493    0.4026277158
C        0.5733165599   -0.5413328227    1.2623424248
C        1.0801240441    1.8843833844    2.0525633959
C       -0.4132573470    1.6852711091    2.1794413192
C        0.5256089574    0.5033596317    2.3459504584
C       -0.5918768689   -1.5020621838    1.2282925041
C        0.7712533259   -0.0252656927    3.7554662132
N       -1.3369896788    0.1773270684    4.7897988222
O       -0.3209247353   -0.7483544262    4.3394755029
H        1.6246693140   -1.4074948658   -0.3625715250
H        2.4395448031    0.0513043477    0.4389142405
H        1.4806746869    2.0727054811    1.0624370180
H        1.5937293114    2.4085433177    2.8539096725
H       -0.9103046677    2.0664555657    3.0647867884
H       -0.9975486761    1.7270039912    1.2639826697
H       -0.6800364190   -2.0363651721    2.1802909304
H       -1.5336476824   -0.9566437960    1.0871265965
H       -0.4913897759   -2.2322567673    0.4201825061
H        1.0377572465    0.8011476540    4.4245543655
H        1.5918557137   -0.7495032444    3.7398116610
H       -1.5900944219   -0.2029802888    5.7042492761
H       -2.1355428776   -0.0127165862    4.1788464492
22   
torsion grid (-60,)
C        1.5572434071   -0.7334834785    0.4658280720
C        0.5403667253   -0.5405355385    1.3176541484
C        1.1486307447    1.9064963788    1.9866972887
C       -0.3481603554    1.7513878567    2.1452504959
C        0.5666321698    0.5562187373    2.3496299633
C       -0.6859703457   -1.4225137474    1.3085684019
C        0.8177730562    0.1127242465    3.7850473705
N       -1.3704364950   -0.0832915365    4.6097582401
O       -0.1469283291   -0.8002172204    4.3168323389
H        1.5358490559   -1.5319526134   -0.2727203052
H        2.4428096198   -0.1031278195    0.4828805948
H        1.5376786469    2.0380646514    0.9827345011
H        1.6913833764    2.4520508717    2.7543308552
H       -0.8273193383    2.1756733963    3.0218038696
H       -0.9457909270    1.7730940459    1.2378605603
H       -0.7702509320   -1.9685958541    2.2537836026
H       -1.5951071000   -0.8174252966    1.2002378230
H       -0.6562909307   -2.1452543913    0.4881689043
H        0.8815093683    0.9894473731    4.4410639281
H        1.7596198488   -0.4443762357    3.8371296883
H       -1.6778633187   -0.5262962904    5.4777092103
H       -2.0271140189   -0.3962428260    3.8890826561
22   
torsion grid (-45,)
C        1.5058241559   -0.7623647815    0.5200560773
C        0.4936714191   -0.5056780810    1.3611351925
C        1.1901116718    1.9445083115    1.9513462599
C       -0.3156382928    1.8370870084    2.0665253314
C        0.5626845690    0.6283790519    2.3501749610
C       -0.7669944840   -1.3379285697    1.3549191138
C        0.7542239458    0.2580921071    3.8178371452
N       -1.3959519556   -0.3104925649    4.5499026551
O       -0.0610763034   -0.8133630994    4.2925703188
H        1.4524663185   -1.5725486922   -0.2041304946
H        2.4199914998   -0.1742001948    0.5321693020
H        1.6149971266    2.0266287955    0.9565377791
H        1.7250121277    2.5045487788    2.7147060303
H       -0.8122163092    2.3100851423    2.9085960123
H       -0.8830847589    1.8395177947    1.1398652411
H       -0.8215642571   -1.9522875097    2.2593440644
H       -1.6568152975   -0.6971303073    1.3314362879
H       -0.8010069880   -2.0029345489    0.4872621743
H        0.6106142150    1.1405299210    4.4522872063
H        1.7740927051   -0.1201000779    3.9585230498
H       -1.6359386884   -0.7649328057    5.4331084108
H       -1.9793771589   -0.7585774635    3.8382881794
22   
torsion grid (-30,)
C        1.4632335939   -0.8072284290    0.5469485132
C        0.4621983439   -0.4964208099    1.3834765989
C        1.2832697729    1.9260115223    1.9335009863
C       -0.2301574388    1.8989004764    1.9678267085
C        0.5717553837    0.6589103814    2.3425866360
C       -0.8307515922   -1.2785031540    1.3783217780
C        0.6703267701    0.3445182453    3.8396599482
N       -1.3736209160   -0.5541109608    4.5556268573
O        0.0184134183   -0.8475827285    4.2733653786
H        1.3733910705   -1.6196208726   -0.1712724787
H        2.4049873513   -0.2647050410    0.5574565129
H        1.7671686840    1.9572938151    0.9629582429
H        1.8022414171    2.4828619868    2.7106568265
H       -0.7450490519    2.4316461653    2.7627447210
H       -0.7468931896    1.8956245589    1.0119884767
H       -0.8511942743   -1.9833669555    2.2158959173
H       -1.6950675546   -0.6120371337    1.4746251967
H       -0.9399458268   -1.8549384843    0.4551929411
H        0.3251843163    1.1964671904    4.4351145108
H        1.7236740480    0.1504935009    4.0794148322
H       -1.5095754975   -0.9762238703    5.4765777496
H       -1.8942914812   -1.1423699313    3.9008432220
22   
torsion grid (-15,)
C        0.9865862129   -1.5974000242    1.6805594597
C        0.1373947916   -0.5622996269    1.5594809557
C        0.6819234008    1.9521112342    1.8726694974
C       -0.7709590270    1.7866351534    2.2299652949
C        0.1988200014    0.6359652698    2.4704747496
C       -0.8906170480   -0.5569059562    0.4510927410
C        0.5902223863    0.4351161685    3.9545095136
N       -0.8304856049   -1.3407766818    4.4744183199
O        0.5488586375   -0.8954791163    4.4433087216
H        0.9389563277   -2.4372869816    0.9908480088
H        1.7358832051   -1.6459110906    2.4626857287
H        0.9586060625    1.9551464385    0.8220459286
H        1.3055164878    2.5838989934    2.5015504581
H       -1.1414307179    2.3027478663    3.1111963500
H       -1.4922473717    1.7208675882    1.4235933801
H       -1.9079458481   -0.5038998381    0.8553984100
H       -0.7668365910    0.3030811556   -0.2188044126
H       -0.8078674060   -1.4618944583   -0.1562479416
H       -0.0366137542    1.0786946353    4.5831965373
H        1.6391537348    0.7164276652    4.1052632116
H       -0.8656558659   -1.8820320935    5.3403536455
H       -0.8787036408   -2.0199674148    3.7091059351
22   
torsion grid (0,)
C        1.2206323955   -1.2871175495    1.3552810641
C        0.1441107223   -0.5089259195    1.5325271381
C        0.9978680923    1.9130871732    1.8998744588
C       -0.5104856829    1.9698376534    1.9927624323
C        0.2198301983    0.7137867244    2.4153676953
C       -1.1889239620   -0.8333050682    0.9006638959
C        0.3229509374    0.4733173556    3.9466701494
N       -0.9774304589   -1.4603956342    4.1664298402
O        0.3355964338   -0.8839462958    4.3636698192
H        1.1798001777   -2.1876291428    0.7459411499
H        2.1747689227   -1.0473311402    1.8181955530
H        1.4477211269    1.8391914377    0.9143219208
H        1.5773792868    2.4870202411    2.6200626703
H       -0.9512704005    2.5811117205    2.7768729788
H       -1.0769608063    1.9619503054    1.0665670245
H       -1.9803700146   -0.8364264115    1.6577577039
H       -1.4680775986   -0.0829126131    0.1512663594
H       -1.1679645727   -1.8070631790    0.4017715675
H       -0.4939450702    1.0002820401    4.4560354670
H        1.2766462064    0.8590805081    4.3216213970
H       -1.1720051743   -1.8959685685    5.0709256403
H       -0.7992840565   -2.2288493753    3.5150838829
22   
torsion grid (15,)
C        1.1834482517   -1.2477663899    1.2839862003
C        0.0993773759   -0.5015691669    1.5352238184
C        1.1156308041    1.8413586260    1.9333574332
C       -0.3862090440    2.0316418458    1.9072479246
C        0.1941901701    0.7280667669    2.4045698013
C       -1.2672446106   -0.8589161121    0.9999309632
C        0.1374879715    0.5139612445    3.9397717588
N       -0.8690948238   -1.5928485410    4.1638731666
O        0.3343934502   -0.8221088236    4.3847723943
H        1.1266431329   -2.1484160502    0.6759193674
H        2.1595892924   -0.9762333334    1.6779999408
H        1.6261347713    1.7112945297    0.9841856867
H        1.6861410923    2.3819407171    2.6851844060
H       -0.8312961196    2.6977539127    2.6434143118
H       -0.8782524456    2.0484942199    0.9390318552
H       -1.9931337042   -0.9195666478    1.8176951029
H       -1.6300605582   -0.0910890341    0.3062399528
H       -1.2541046432   -1.8142537184    0.4661726193
H       -0.8249585145    0.8721497102    4.3263309921
H        0.9414053589    1.0778954340    4.4230280296
H       -1.0053153201   -2.0584136229    5.0639799381
H       -0.5672186412   -2.3202344114    3.5109049934
22   
torsion grid (30,)
C       -0.4610646224   -1.1638091387    0.9194451326
C        0.6079270757   -0.4943610652    1.3750302802
C        0.6578885181    2.0354590515    1.7699195997
C       -0.7060319844    1.5904260889    2.2536625233
C        0.4637738285    0.6413016521    2.3528689419
C        2.0022831546   -0.8358927691    0.9032922575
C        0.9747268605    0.4292038541    3.7824478453
N        3.3131562038    0.2654191773    3.7287611644
O        2.0761404884   -0.4652664839    3.9273799966
H       -0.3637234659   -1.9619410296    0.1863585422
H       -1.4656339528   -0.9399137261    1.2687781581
H        0.7993934027    2.1178546224    0.6957512898
H        1.2109827617    2.7613819024    2.3597859202
H       -1.0846602855    2.0181158273    3.1794654287
H       -1.4688967160    1.3949145616    1.5073963709
H        2.5905007384    0.0706674826    0.7226609083
H        2.5229867805   -1.4328322810    1.6591505085
H        1.9745136421   -1.4198196369   -0.0211704111
H        0.1808508689   -0.0618645826    4.3597532706
H        1.2094047343    1.3897101976    4.2534691759
H        3.7440236202   -0.1822355702    2.9164518309
H        3.8743923623   -0.0207811473    4.5336978145
22   
torsion grid (45,)
C       -0.5221241601   -1.1363403893    0.9100038729
C        0.5754576679   -0.5146158533    1.3644588689
C        0.7862040798    2.0109582096    1.8315001217
C       -0.6232611222    1.6380950171    2.2395016154
C        0.4840626135    0.6157479044    2.3559051429
C        1.9566912062   -0.9139411752    0.9011064896
C        0.9204163200    0.3196283212    3.7875949091
N        3.2538671133    0.5027440146    3.7240972649
O        2.1423086731   -0.4067671004    3.9196148137
H       -0.4591481630   -1.9440080798    0.1837824880
H       -1.5163108452   -0.8606925383    1.2526407140
H        0.9805669816    2.1167435143    0.7676706493
H        1.3577018021    2.6782977010    2.4698163311
H       -1.0215050867    2.0627864697    3.1579361915
H       -1.3580039359    1.5071714153    1.4521459796
H        2.5357843715   -0.0331952753    0.5979672781
H        2.5012940112   -1.4090733603    1.7114475621
H        1.9086784386   -1.6011098564    0.0515697185
H        0.1816436793   -0.3433313181    4.2541347476
H        0.9795042655    1.2497228578    4.3648968949
H        3.6769242757    0.2031839840    2.8415737394
H        3.9053307026    0.2149531266    4.4568552762
22   
torsion grid (60,)
C       -0.5951321530   -1.1293238092    0.8775305745
C        0.5303753657   -0.5656728969    1.3384069783
C        0.8680977719    1.9457365212    1.8917014721
C       -0.5629618988    1.6173263773    2.2574852985
C        0.5030069436    0.5458674873    2.3544105622
C        1.8959826370   -1.0228933927    0.8824062001
C        0.8988396948    0.1593948691    3.7736139535
N        3.1787423289    0.7146366272    3.7970588967
O        2.2221298236   -0.3661023887    3.9138735181
H       -0.5690340957   -1.9368758625    0.1490772226
H       -1.5756749221   -0.8044892324    1.2164727632
H        1.0895766064    2.0806962675    0.8363702747
H        1.4510045615    2.5642201224    2.5667243071
H       -0.9621843626    2.0261071190    3.1821423724
H       -1.2846032831    1.5436415554    1.4510031500
H        2.4751688054   -0.1766036247    0.4915911818
H        2.4589681622   -1.4407485474    1.7233484930
H        1.8255460583   -1.7809493088    0.0971165071
H        0.2565689306   -0.6559304286    4.1241572881
H        0.7827348375    1.0215829457    4.4416067766
H        3.6209793987    0.5651632262    2.8856745363
H        3.8813716373    0.4573219341    4.4929065454
22   
torsion grid (75,)
C       -0.6834622387   -1.0518707040    0.8345662715
C        0.4824977374   -0.5805441797    1.2979429574
C        0.9570962486    1.9062326985    1.9013980455
C       -0.4744822271    1.6226342459    2.2965815148
C        0.5539457314    0.5082879560    2.3358369791
C        1.8105873766   -1.1337851022    0.8376392516
C        0.9726067107    0.0400320965    3.7259222554
N        3.1251216887    0.9644845533    3.9875162651
O        2.3662668432   -0.2620762093    3.8788563932
H       -0.7176335255   -1.8518902343    0.0982553196
H       -1.6367972285   -0.6587425181    1.1781499194
H        1.1579263509    2.0565504796    0.8438879701
H        1.5723118597    2.4897305453    2.5775923215
H       -0.8301700419    2.0217574673    3.2425372166
H       -1.2192537789    1.6008652516    1.5084771043
H        2.4274550279   -0.3367306839    0.4034527011
H        2.3747239772   -1.5391188609    1.6843693415
H        1.6839296983   -1.9196854231    0.0875333858
H        0.4686336727   -0.9018509174    3.9647686191
H        0.6962600172    0.7921221922    4.4739888687
H        3.6908669947    0.9838153972    3.1350841508
H        3.7751732148    0.7533707185    4.7476429502
22   
torsion grid (90,)
C       -0.7810881777   -1.0024318641    0.8191702873
C        0.4237311394   -0.6068712687    1.2522625982
C        1.0315059827    1.8502016667    1.8340851168
C       -0.3808725077    1.6218139644    2.3195233026
C        0.6036556119    0.4671335013    2.2917200139
C        1.7034272339   -1.2411840134    0.7604509170
C        1.1003999156   -0.0571244539    3.6411689579
N        3.0247708723    1.1999182479    4.1877319842
O        2.5261489201   -0.1028499664    3.8056618696
H       -0.8842114817   -1.7959094170    0.0822087241
H       -1.6988425260   -0.5517618815    1.1875263233
H        1.1751273057    1.9888066044    0.7657832357
H        1.7007456458    2.4152663153    2.4721541800
H       -0.6511546330    2.0296963161    3.2895748609
H       -1.1785485885    1.6379609397    1.5847240462
H        2.3463726399   -0.4885986491    0.2876883821
H        2.2801560675   -1.6555074991    1.5953243965
H        1.5106420433   -2.0390665823    0.0376913963
H        0.7808687117   -1.0955030715    3.7702588917
H        0.6803308653    0.5399477022    4.4573870293
H        3.7300409512    1.4047957882    3.4762230107
H        3.5476289789    1.0024562033    5.0447388384
22   
torsion grid (105,)
C       -0.8559799984   -0.9876987865    0.8707639250
C        0.3854910518   -0.6368763375    1.2330500097
C        1.1371190806    1.7778489636    1.7585305579
C       -0.2520663978    1.6328271998    2.3331385110
C        0.6638079111    0.4260142609    2.2616902415
C        1.6122854271   -1.3060864697    0.6597630055
C        1.2228736234   -0.1324381184    3.5794850902
N        2.8462477912    1.3722407999    4.3963947841
O        2.6243496309    0.0668161884    3.8102507686
H       -1.0332832655   -1.7702164570    0.1361535727
H       -1.7321811344   -0.5056098286    1.2962783881
H        1.2250079325    1.8931924029    0.6815298530
H        1.8713661693    2.3172895497    2.3440724862
H       -0.4300645478    2.0605438497    3.3159027754
H       -1.0950784325    1.6885760682    1.6522978114
H        2.2373142380   -0.5736692703    0.1348072586
H        2.2381765559   -1.7289253868    1.4546486670
H        1.3516736480   -2.1069362779   -0.0378525736
H        1.1024273786   -1.2194438913    3.5918370254
H        0.6695119811    0.2788885698    4.4298280126
H        3.6299357091    1.7396767002    3.8523698271
H        3.2345595842    1.1538796438    5.3184670734
22   
torsion grid (120,)
C       -0.4135359549   -1.2141420787    0.7181857297
C        0.5549684642   -0.5218803987    1.3338147384
C        0.5139793641    1.9956875965    1.8478043874
C       -0.9016538725    1.5151680024    2.0671848914
C        0.2590381661    0.5759257483    2.3198016344
C        2.0202917112   -0.8029270847    1.0991469282
C        0.5803946390    0.1884663936    3.7745292131
N        0.9026780681    2.1639626095    5.0120320024
O        1.5506020269    0.9934848767    4.4533704087
H       -0.1843995348   -2.0108579121    0.0137110857
H       -1.4645640933   -1.0026409915    0.8975914841
H        0.8504291501    2.1160162105    0.8215277543
H        0.9299338853    2.7089947007    2.5488388986
H       -1.4199474517    1.8936041972    2.9436547725
H       -1.5269253231    1.3519730271    1.1949852865
H        2.5154915740    0.0776964174    0.6729663593
H        2.5392557717   -1.0221246806    2.0398957107
H        2.1684707036   -1.6481424259    0.4213061565
H        1.0168091879   -0.8142047086    3.7919257442
H       -0.3393142349    0.1636745569    4.3683096315
H        1.5516066405    2.9194197213    4.7814028703
H        0.9958172974    2.0269468312    6.0226153976
22   
torsion grid (135,)
C       -0.4769618094   -1.2264861916    0.7973338770
C        0.5490152871   -0.5462110730    1.3280157107
C        0.6613021489    1.9725667797    1.8270025423
C       -0.7735415147    1.5734474313    2.0999481391
C        0.3393433798    0.5725454360    2.3125822565
C        1.9859727872   -0.8625979048    0.9866360578
C        0.7026234965    0.1808643234    3.7552238077
N        0.5954110738    2.1253343138    5.0777439323
O        1.4751577268    1.1307198727    4.4955478679
H       -0.3178753680   -2.0388829994    0.0914237453
H       -1.5067656780   -0.9859344525    1.0494542937
H        0.9625281393    2.0791278230    0.7884539256
H        1.1591248550    2.6505381271    2.5114792588
H       -1.2420257940    1.9766570626    2.9926815372
H       -1.4320165489    1.4436051050    1.2464318504
H        2.4657929099   -0.0000868983    0.5091876557
H        2.5731897276   -1.0834582777    1.8857495664
H        2.0617554588   -1.7196494673    0.3117803134
H        1.3404697805   -0.7076649671    3.7377038832
H       -0.2054021901   -0.0651949041    4.3159947812
H        1.0308382758    3.0124503023    4.8154288617
H        0.7616055012    2.0262070165    6.0825604211
22   
torsion grid (150,)
C       -0.5420326816   -1.2171044011    0.9109464167
C        0.5376046304   -0.5486707387    1.3408258612
C        0.7887621840    1.9822680434    1.7974768774
C       -0.6561388272    1.6421842389    2.1138648476
C        0.4225499143    0.6026151894    2.3035224969
C        1.9361605124   -0.9167714056    0.9037391280
C        0.8253534146    0.2157402295    3.7333581180
N        0.3293217035    2.0388037440    5.1517792234
O        1.3843784473    1.2653378869    4.5292053104
H       -0.4580791394   -2.0570590095    0.2246063812
H       -1.5432824042   -0.9380015612    1.2297394979
H        1.0606290897    2.0784370040    0.7498709928
H        1.3337664998    2.6361641405    2.4710685735
H       -1.0973220174    2.0658496982    3.0101046099
H       -1.3356546409    1.5256816149    1.2751038900
H        2.4055473296   -0.0806807376    0.3720876761
H        2.5813977662   -1.1391993175    1.7616460422
H        1.9359350456   -1.7895366036    0.2449415669
H        1.6259114051   -0.5295150934    3.6952408237
H       -0.0307558974   -0.2251068706    4.2554804254
H        0.5432615807    3.0011327780    4.8789130231
H        0.5555514269    1.9792083320    6.1476476513
22   
torsion grid (165,)
C       -0.6891022628   -0.8506011268    0.7251148735
C        0.4084450096   -0.6276807107    1.4612578395
C        1.4760163580    1.6535398508    2.0360442551
C       -0.0213887187    1.8963297847    1.9835311025
C        0.5061401583    0.5451014889    2.4010522178
C        1.6110539904   -1.5407939554    1.4033616912
C        0.3572700420    0.1371799504    3.8611197148
N        0.5691185979    0.8241129021    6.0794053864
O        0.8001487432    1.2057648754    4.7046208601
H       -0.7594342513   -1.6997541135    0.0487686125
H       -1.5486248984   -0.1868300904    0.7745615162
H        1.9995476461    1.5603434585    1.0883426501
H        2.0387044345    2.1240847531    2.8346970590
H       -0.4474166488    2.5256241944    2.7593840807
H       -0.4872778917    1.9875826740    1.0074626636
H        2.5056552110   -0.9819218110    1.1046386190
H        1.8297608208   -1.9800170784    2.3834843834
H        1.4600668607   -2.3587905168    0.6936510724
H        0.9513231200   -0.7598084632    4.0779238829
H       -0.6936986470   -0.0943584850    4.0764908299
H       -0.0014509194    1.5897227188    6.4454362627
H        1.4898727535    0.9310253261    6.5111135493
22   
torsion grid (180,)
C       -0.6865737786   -0.7918940676    0.6818977235
C        0.3932616904   -0.6278875348    1.4584527336
C        1.4803586390    1.6536450286    2.0079105931
C       -0.0202322086    1.8896708974    2.0138023461
C        0.5312661556    0.5383415314    2.4005433383
C        1.5418676923   -1.6110146834    1.4426361537
C        0.4690750194    0.1181341224    3.8630907967
N        0.6039581738    0.8407576277    6.0753686708
O        0.6064645533    1.2733339816    4.6965046023
H       -0.7723175414   -1.6349503971   -0.0002274135
H       -1.5162213821   -0.0903131626    0.7044349269
H        1.9704413495    1.5740819850    1.0412108159
H        2.0684970838    2.1216201657    2.7909889697
H       -0.4211260218    2.5120026838    2.8066217610
H       -0.5173593788    1.9840935636    1.0538827843
H        2.4922279867   -1.0931033043    1.2677935172
H        1.6378245404   -2.1312890299    2.4028461070
H        1.4098491560   -2.3681933440    0.6649696069
H        1.2719441628   -0.5909027106    4.0997102576
H       -0.4921721387   -0.3731166364    4.0668733378
H       -0.1844252088    1.3484857407    6.4837256437
H        1.4455243233    1.2767258180    6.4587720074
