18
0 1 C7FH6N3S
C                     1.409929901538    -0.164844537948    -1.664705460553
H                     2.094692858755     0.551125369952    -1.221280406144
C                     1.662797739666    -0.738495119054    -2.911572600853
H                     2.555264842322    -0.483296265896    -3.474482704952
C                     0.752743226035    -1.657959641766    -3.449584134008
C                    -0.412219511339    -1.987061505587    -2.711705437611
C                    -0.683336581213    -1.426231067926    -1.462602761726
H                    -1.569603155738    -1.665645903709    -0.884001521435
C                     0.249949092430    -0.518986442949    -0.971590097245
F                     0.018961155015     0.050379035733     0.242998482062
S                    -1.374021296007    -3.144519959769    -3.620174684489
C                    -0.106487277330    -3.091057688894    -4.892856967705
N                    -0.330086366271    -3.856728174425    -6.022073959126
N                     0.713083383802    -3.933341440257    -6.967162062603
H                     0.301615219434    -4.025211318998    -7.891504085751
H                     1.328008379729    -4.724485373687    -6.777368766544
H                    -0.870259350202    -4.702364686760    -5.852070779474
N                     0.896512429593    -2.308098364753    -4.671847380985
