28
0 1 C10H10N2O4S2
O                     3.524935391570    -0.860325503309    -2.568897024072
S                     1.938138691453    -0.836751081915    -2.122535427735
O                     1.369657991775     0.411725968921    -2.637824176132
O                     1.359676434265    -2.128302676149    -2.464150469885
C                     2.118158814696    -0.733029771531    -0.330695682079
C                     0.735209896970    -0.777655719632     0.311658907641
C                     0.861472087446    -0.642324251990     1.830557319073
O                     1.923324661196    -0.469210827990     2.395668191814
N                    -0.373122755992    -0.734390984653     2.473046325095
C                    -0.623363885449    -0.649036023515     3.840315891406
N                     0.257612811424    -0.580684547468     4.777891721115
C                    -0.357698669079    -0.507489205489     6.022986213011
C                     0.316211297473    -0.423546321987     7.249389456729
H                     1.401825409678    -0.407808321861     7.257627168951
C                    -0.427700707056    -0.362678189589     8.426728341993
H                     0.085239494671    -0.297380251259     9.382227620791
C                    -1.833819712452    -0.384907971690     8.396608040838
H                    -2.393993155439    -0.336533147017     9.326170153747
C                    -2.524135236181    -0.468417596643     7.184961406358
H                    -3.609867794121    -0.485268668113     7.165489489499
C                    -1.775122111511    -0.528067663645     6.008072284681
S                    -2.339440551963    -0.633140058700     4.347413061250
H                    -1.184031140734    -0.860397773040     1.879636573866
H                     0.232103247180    -1.718074723242     0.062884927291
H                     0.111096802426     0.037527199865    -0.072345594506
H                     2.641490299972     0.198056355870    -0.111882916340
H                     2.739253397762    -1.576309169816    -0.025727833968
H                     3.692943578430    -0.060072906053    -3.103792502514
