
  -OEChem-12102412493D

 27 27  0     1  0  0  0  0  0999 V2000
    1.3567    0.1534    2.9888 O   0  0  0  0  0  0  0  0  0  0  0  0
    1.7938    0.3187    1.3980 S   0  0  0  0  0  0  0  0  0  0  0  0
    2.3943    1.6463    1.2726 O   0  0  0  0  0  0  0  0  0  0  0  0
    2.5220   -0.8796    0.9998 O   0  0  0  0  0  0  0  0  0  0  0  0
    0.1396    0.2568    0.6621 C   0  0  0  0  0  0  0  0  0  0  0  0
    0.2071   -0.0545   -0.8383 C   0  0  2  0  0  0  0  0  0  0  0  0
    0.9609    1.0084   -1.6147 C   0  0  0  0  0  0  0  0  0  0  0  0
    0.4719    2.3190   -1.7189 C   0  0  0  0  0  0  0  0  0  0  0  0
   -0.4617    2.5973   -1.2360 H   0  0  0  0  0  0  0  0  0  0  0  0
    1.1680    3.2951   -2.4316 C   0  0  0  0  0  0  0  0  0  0  0  0
    0.7842    4.3076   -2.5062 H   0  0  0  0  0  0  0  0  0  0  0  0
    2.3744    2.9561   -3.0481 C   0  0  0  0  0  0  0  0  0  0  0  0
    3.2596    4.1792   -3.9452 Cl  0  0  0  0  0  0  0  0  0  0  0  0
    2.8866    1.6624   -2.9569 C   0  0  0  0  0  0  0  0  0  0  0  0
    3.8307    1.4142   -3.4314 H   0  0  0  0  0  0  0  0  0  0  0  0
    2.1743    0.6983   -2.2398 C   0  0  0  0  0  0  0  0  0  0  0  0
    2.5841   -0.3044   -2.1502 H   0  0  0  0  0  0  0  0  0  0  0  0
   -1.2240   -0.2730   -1.4071 C   0  0  0  0  0  0  0  0  0  0  0  0
   -1.9864   -1.3976   -0.8694 N   0  0  0  0  0  0  0  0  0  0  0  0
   -1.4593   -2.2657   -0.9456 H   0  0  0  0  0  0  0  0  0  0  0  0
   -2.2184   -1.2657    0.1120 H   0  0  0  0  0  0  0  0  0  0  0  0
   -1.1241   -0.4140   -2.4880 H   0  0  0  0  0  0  0  0  0  0  0  0
   -1.8208    0.6353   -1.2710 H   0  0  0  0  0  0  0  0  0  0  0  0
    0.7457   -1.0017   -0.9457 H   0  0  0  0  0  0  0  0  0  0  0  0
   -0.3806   -0.5311    1.2126 H   0  0  0  0  0  0  0  0  0  0  0  0
   -0.3234    1.2220    0.8794 H   0  0  0  0  0  0  0  0  0  0  0  0
    1.7942    0.8740    3.4831 H   0  0  0  0  0  0  0  0  0  0  0  0
  1  2  1  0  0  0  0
  1 27  1  0  0  0  0
  2  3  2  0  0  0  0
  2  4  2  0  0  0  0
  2  5  1  0  0  0  0
  5  6  1  0  0  0  0
  5 25  1  0  0  0  0
  5 26  1  0  0  0  0
  6  7  1  0  0  0  0
  6 18  1  0  0  0  0
  6 24  1  0  0  0  0
  7  8  2  0  0  0  0
  7 16  1  0  0  0  0
  8  9  1  0  0  0  0
  8 10  1  0  0  0  0
 10 11  1  0  0  0  0
 10 12  2  0  0  0  0
 12 13  1  0  0  0  0
 12 14  1  0  0  0  0
 14 15  1  0  0  0  0
 14 16  2  0  0  0  0
 16 17  1  0  0  0  0
 18 19  1  0  0  0  0
 18 22  1  0  0  0  0
 18 23  1  0  0  0  0
 19 20  1  0  0  0  0
 19 21  1  0  0  0  0
M  END
$$$$
