
  -OEChem-12102412493D

 22 23  0     0  0  0  0  0  0999 V2000
   -4.4482    2.6510   -1.1682 C   0  0  0  0  0  0  0  0  0  0  0  0
   -4.6053    3.7012   -1.3899 H   0  0  0  0  0  0  0  0  0  0  0  0
   -5.4413    1.7159   -1.1606 C   0  0  0  0  0  0  0  0  0  0  0  0
   -7.1761    1.9687   -1.5028 S   0  0  0  0  0  0  0  0  0  0  0  0
   -7.4910    1.2762   -2.7487 O   0  0  0  0  0  0  0  0  0  0  0  0
   -7.9158    1.7117   -0.2710 O   0  0  0  0  0  0  0  0  0  0  0  0
   -7.3353    3.6057   -1.8183 N   0  0  0  0  0  0  0  0  0  0  0  0
   -7.1572    4.1990   -1.0118 H   0  0  0  0  0  0  0  0  0  0  0  0
   -6.8751    3.9064   -2.6738 H   0  0  0  0  0  0  0  0  0  0  0  0
   -4.8769    0.0978   -0.7642 S   0  0  0  0  0  0  0  0  0  0  0  0
   -3.2360    0.6973   -0.6015 C   0  0  0  0  0  0  0  0  0  0  0  0
   -2.1074   -0.0593   -0.2759 C   0  0  0  0  0  0  0  0  0  0  0  0
   -2.1843   -1.1273   -0.0871 H   0  0  0  0  0  0  0  0  0  0  0  0
   -0.8663    0.5853   -0.1888 C   0  0  0  0  0  0  0  0  0  0  0  0
    0.2797   -0.1193    0.1962 N   0  0  0  0  0  0  0  0  0  0  0  0
    1.1525    0.2804   -0.1280 H   0  0  0  0  0  0  0  0  0  0  0  0
    0.2436   -1.1181    0.0289 H   0  0  0  0  0  0  0  0  0  0  0  0
   -0.7823    1.9823   -0.4308 C   0  0  0  0  0  0  0  0  0  0  0  0
    0.1850    2.4730   -0.3514 H   0  0  0  0  0  0  0  0  0  0  0  0
   -1.9063    2.7225   -0.7563 C   0  0  0  0  0  0  0  0  0  0  0  0
   -1.8184    3.7904   -0.9398 H   0  0  0  0  0  0  0  0  0  0  0  0
   -3.1633    2.0918   -0.8488 C   0  0  0  0  0  0  0  0  0  0  0  0
  1  2  1  0  0  0  0
  1  3  2  0  0  0  0
  1 22  1  0  0  0  0
  3  4  1  0  0  0  0
  3 10  1  0  0  0  0
  4  5  2  0  0  0  0
  4  6  2  0  0  0  0
  4  7  1  0  0  0  0
  7  8  1  0  0  0  0
  7  9  1  0  0  0  0
 10 11  1  0  0  0  0
 11 12  2  0  0  0  0
 11 22  1  0  0  0  0
 12 13  1  0  0  0  0
 12 14  1  0  0  0  0
 14 15  1  0  0  0  0
 14 18  2  0  0  0  0
 15 16  1  0  0  0  0
 15 17  1  0  0  0  0
 18 19  1  0  0  0  0
 18 20  1  0  0  0  0
 20 21  1  0  0  0  0
 20 22  2  0  0  0  0
M  END
$$$$
