
  -OEChem-12122420533D

 28 29  0     0  0  0  0  0  0999 V2000
   -0.4121   -5.1770    2.4891 O   0  0  0  0  0  0  0  0  0  0  0  0
   -1.2044   -4.5189    1.1922 S   0  0  0  0  0  0  0  0  0  0  0  0
   -2.3712   -3.8167    1.7244 O   0  0  0  0  0  0  0  0  0  0  0  0
   -1.3340   -5.6212    0.2521 O   0  0  0  0  0  0  0  0  0  0  0  0
   -0.0456   -3.3038    0.5954 C   0  0  0  0  0  0  0  0  0  0  0  0
   -0.4740   -1.9903    0.6269 C   0  0  0  0  0  0  0  0  0  0  0  0
   -1.4552   -1.7503    1.0219 H   0  0  0  0  0  0  0  0  0  0  0  0
    0.3382   -0.9856    0.1105 C   0  0  0  0  0  0  0  0  0  0  0  0
   -0.0338    0.0355    0.0896 H   0  0  0  0  0  0  0  0  0  0  0  0
    1.6041   -1.2438   -0.4297 C   0  0  0  0  0  0  0  0  0  0  0  0
    2.2900   -0.1795   -0.9519 N   0  0  0  0  0  0  0  0  0  0  0  0
    2.9811   -0.3084   -1.6831 H   0  0  0  0  0  0  0  0  0  0  0  0
    1.7732    0.6878   -1.0130 H   0  0  0  0  0  0  0  0  0  0  0  0
    2.1317   -2.5973   -0.3730 C   0  0  0  0  0  0  0  0  0  0  0  0
    3.4684   -3.0166   -0.7218 C   0  0  0  0  0  0  0  0  0  0  0  0
    4.8578   -1.9445   -1.1677 S   0  0  0  0  0  0  0  0  0  0  0  0
    6.0867   -2.7320   -1.1606 O   0  0  0  0  0  0  0  0  0  0  0  0
    4.5242   -1.1247   -2.3300 O   0  0  0  0  0  0  0  0  0  0  0  0
    4.9496   -0.9136    0.1078 O   0  0  0  0  0  0  0  0  0  0  0  0
    5.6379   -1.2578    0.7113 H   0  0  0  0  0  0  0  0  0  0  0  0
    3.8557   -4.3438   -0.7039 C   0  0  0  0  0  0  0  0  0  0  0  0
    4.8749   -4.6077   -0.9597 H   0  0  0  0  0  0  0  0  0  0  0  0
    2.9419   -5.3480   -0.3359 C   0  0  0  0  0  0  0  0  0  0  0  0
    3.2512   -6.3885   -0.3502 H   0  0  0  0  0  0  0  0  0  0  0  0
    1.6790   -5.0031    0.0718 C   0  0  0  0  0  0  0  0  0  0  0  0
    0.9934   -5.7824    0.3766 H   0  0  0  0  0  0  0  0  0  0  0  0
    1.2484   -3.6453    0.0928 C   0  0  0  0  0  0  0  0  0  0  0  0
   -0.6586   -4.6629    3.2822 H   0  0  0  0  0  0  0  0  0  0  0  0
  1  2  1  0  0  0  0
  1 28  1  0  0  0  0
  2  3  2  0  0  0  0
  2  4  2  0  0  0  0
  2  5  1  0  0  0  0
  5  6  2  0  0  0  0
  5 27  1  0  0  0  0
  6  7  1  0  0  0  0
  6  8  1  0  0  0  0
  8  9  1  0  0  0  0
  8 10  2  0  0  0  0
 10 11  1  0  0  0  0
 10 14  1  0  0  0  0
 11 12  1  0  0  0  0
 11 13  1  0  0  0  0
 14 15  2  0  0  0  0
 14 27  1  0  0  0  0
 15 16  1  0  0  0  0
 15 21  1  0  0  0  0
 16 17  2  0  0  0  0
 16 18  2  0  0  0  0
 16 19  1  0  0  0  0
 19 20  1  0  0  0  0
 21 22  1  0  0  0  0
 21 23  2  0  0  0  0
 23 24  1  0  0  0  0
 23 25  1  0  0  0  0
 25 26  1  0  0  0  0
 25 27  2  0  0  0  0
M  END
$$$$
