
  -OEChem-12102412493D

 18 19  0     0  0  0  0  0  0999 V2000
    1.4099   -0.1648   -1.6647 C   0  0  0  0  0  0  0  0  0  0  0  0
    2.0947    0.5511   -1.2213 H   0  0  0  0  0  0  0  0  0  0  0  0
    1.6628   -0.7385   -2.9116 C   0  0  0  0  0  0  0  0  0  0  0  0
    2.5553   -0.4833   -3.4745 H   0  0  0  0  0  0  0  0  0  0  0  0
    0.7527   -1.6580   -3.4496 C   0  0  0  0  0  0  0  0  0  0  0  0
   -0.4122   -1.9871   -2.7117 C   0  0  0  0  0  0  0  0  0  0  0  0
   -0.6833   -1.4262   -1.4626 C   0  0  0  0  0  0  0  0  0  0  0  0
   -1.5696   -1.6656   -0.8840 H   0  0  0  0  0  0  0  0  0  0  0  0
    0.2499   -0.5190   -0.9716 C   0  0  0  0  0  0  0  0  0  0  0  0
    0.0190    0.0504    0.2430 F   0  0  0  0  0  0  0  0  0  0  0  0
   -1.3740   -3.1445   -3.6202 S   0  0  0  0  0  0  0  0  0  0  0  0
   -0.1065   -3.0911   -4.8929 C   0  0  0  0  0  0  0  0  0  0  0  0
   -0.3301   -3.8567   -6.0221 N   0  0  0  0  0  0  0  0  0  0  0  0
    0.7131   -3.9333   -6.9672 N   0  0  0  0  0  0  0  0  0  0  0  0
    0.3016   -4.0252   -7.8915 H   0  0  0  0  0  0  0  0  0  0  0  0
    1.3280   -4.7245   -6.7774 H   0  0  0  0  0  0  0  0  0  0  0  0
   -0.8703   -4.7024   -5.8521 H   0  0  0  0  0  0  0  0  0  0  0  0
    0.8965   -2.3081   -4.6718 N   0  0  0  0  0  0  0  0  0  0  0  0
  1  2  1  0  0  0  0
  1  3  1  0  0  0  0
  1  9  2  0  0  0  0
  3  4  1  0  0  0  0
  3  5  2  0  0  0  0
  5  6  1  0  0  0  0
  5 18  1  0  0  0  0
  6  7  2  0  0  0  0
  6 11  1  0  0  0  0
  7  8  1  0  0  0  0
  7  9  1  0  0  0  0
  9 10  1  0  0  0  0
 11 12  1  0  0  0  0
 12 13  1  0  0  0  0
 12 18  2  0  0  0  0
 13 14  1  0  0  0  0
 13 17  1  0  0  0  0
 14 15  1  0  0  0  0
 14 16  1  0  0  0  0
M  END
$$$$
