
  -OEChem-12102412493D

 28 29  0     0  0  0  0  0  0999 V2000
   -1.4989   -3.3634   -1.0298 O   0  0  0  0  0  0  0  0  0  0  0  0
   -0.1263   -3.3631   -0.1288 S   0  0  0  0  0  0  0  0  0  0  0  0
   -0.5307   -3.7056    1.2465 O   0  0  0  0  0  0  0  0  0  0  0  0
    0.8817   -4.1503   -0.8159 O   0  0  0  0  0  0  0  0  0  0  0  0
    0.3215   -1.6119   -0.2079 C   0  0  0  0  0  0  0  0  0  0  0  0
    1.5533   -1.3024    0.6678 C   0  0  0  0  0  0  0  0  0  0  0  0
    1.2366   -0.6856    2.0377 C   0  0  0  0  0  0  0  0  0  0  0  0
    1.6496    0.4182    2.3397 O   0  0  0  0  0  0  0  0  0  0  0  0
    0.4611   -1.4959    2.8598 N   0  0  0  0  0  0  0  0  0  0  0  0
   -0.0197   -1.1845    4.1261 C   0  0  0  0  0  0  0  0  0  0  0  0
    0.1986   -0.1037    4.7956 N   0  0  0  0  0  0  0  0  0  0  0  0
   -0.4513   -0.1490    6.0237 C   0  0  0  0  0  0  0  0  0  0  0  0
   -0.4173    0.8670    6.9895 C   0  0  0  0  0  0  0  0  0  0  0  0
    0.1519    1.7697    6.7891 H   0  0  0  0  0  0  0  0  0  0  0  0
   -1.1156    0.6899    8.1830 C   0  0  0  0  0  0  0  0  0  0  0  0
   -1.0950    1.4714    8.9376 H   0  0  0  0  0  0  0  0  0  0  0  0
   -1.8467   -0.4872    8.4258 C   0  0  0  0  0  0  0  0  0  0  0  0
   -2.3831   -0.6054    9.3632 H   0  0  0  0  0  0  0  0  0  0  0  0
   -1.8928   -1.5109    7.4762 C   0  0  0  0  0  0  0  0  0  0  0  0
   -2.4574   -2.4188    7.6674 H   0  0  0  0  0  0  0  0  0  0  0  0
   -1.1928   -1.3297    6.2813 C   0  0  0  0  0  0  0  0  0  0  0  0
   -1.0572   -2.4169    4.9090 S   0  0  0  0  0  0  0  0  0  0  0  0
    0.1664   -2.3960    2.4836 H   0  0  0  0  0  0  0  0  0  0  0  0
    2.1618   -0.5586    0.1534 H   0  0  0  0  0  0  0  0  0  0  0  0
    2.1790   -2.1937    0.7887 H   0  0  0  0  0  0  0  0  0  0  0  0
   -0.5636   -1.0442    0.0864 H   0  0  0  0  0  0  0  0  0  0  0  0
    0.5266   -1.4296   -1.2647 H   0  0  0  0  0  0  0  0  0  0  0  0
   -2.2322   -3.6785   -0.4648 H   0  0  0  0  0  0  0  0  0  0  0  0
  1  2  1  0  0  0  0
  1 28  1  0  0  0  0
  2  3  2  0  0  0  0
  2  4  2  0  0  0  0
  2  5  1  0  0  0  0
  5  6  1  0  0  0  0
  5 26  1  0  0  0  0
  5 27  1  0  0  0  0
  6  7  1  0  0  0  0
  6 24  1  0  0  0  0
  6 25  1  0  0  0  0
  7  8  2  0  0  0  0
  7  9  1  0  0  0  0
  9 10  1  0  0  0  0
  9 23  1  0  0  0  0
 10 11  2  0  0  0  0
 10 22  1  0  0  0  0
 11 12  1  0  0  0  0
 12 13  1  0  0  0  0
 12 21  2  0  0  0  0
 13 14  1  0  0  0  0
 13 15  2  0  0  0  0
 15 16  1  0  0  0  0
 15 17  1  0  0  0  0
 17 18  1  0  0  0  0
 17 19  2  0  0  0  0
 19 20  1  0  0  0  0
 19 21  1  0  0  0  0
 21 22  1  0  0  0  0
M  END
$$$$
