28
0 1 C10H9NO6S2
O                    -0.412127154040    -5.176999681702     2.489085919189
S                    -1.204407987665    -4.518868287293     1.192171262094
O                    -2.371212737991    -3.816704999119     1.724354495660
O                    -1.333959406096    -5.621231334475     0.252109812942
C                    -0.045565740368    -3.303831680100     0.595351281248
C                    -0.474036405557    -1.990295667362     0.626904033362
H                    -1.455175436776    -1.750273187973     1.021879871366
C                     0.338211194411    -0.985597206341     0.110498837470
H                    -0.033787689729     0.035469134441     0.089583055301
C                     1.604136757788    -1.243768648978    -0.429652386693
N                     2.289980395414    -0.179515573939    -0.951943297902
H                     2.981137035736    -0.308393217487    -1.683099977903
H                     1.773229720888     0.687835942198    -1.012970352800
C                     2.131665496779    -2.597315787657    -0.373012824718
C                     3.468386445899    -3.016648864194    -0.721751671645
S                     4.857796014105    -1.944468619287    -1.167713977318
O                     6.086673918007    -2.732018291142    -1.160634734554
O                     4.524150423082    -1.124661431817    -2.330003406675
O                     4.949559888068    -0.913605552012     0.107811733804
H                     5.637852272069    -1.257792998668     0.711291118799
C                     3.855739274512    -4.343786223526    -0.703877568332
H                     4.874906652290    -4.607682215268    -0.959742581513
C                     2.941919162309    -5.347955279790    -0.335866431357
H                     3.251171895881    -6.388546465735    -0.350159518401
C                     1.678977973187    -5.003075335961     0.071845114576
H                     0.993438273784    -5.782442044269     0.376571186911
C                     1.248390800243    -3.645298362127     0.092750805336
H                    -0.658639864916    -4.662864370288     3.282184590901
