27
0 1 C9H11NO5S
O                     2.454841448983     0.507121570205     1.387114568978
C                     2.198429435902    -0.071994517177     0.189635029739
O                     2.598369993329     0.384807639691    -0.865195351842
C                     1.362713324068    -1.346994464282     0.310559817158
N                     0.188754859868    -1.334891562336    -0.562941568976
H                    -0.459940071892    -0.606622464788    -0.267210281531
H                     0.482755965380    -1.094531150380    -1.509940764199
C                     2.248263265647    -2.561102460722    -0.051426213932
C                     3.489066913547    -2.655921444058     0.803474937212
C                     3.432667349311    -3.250048971256     2.073400265370
H                     2.501013494141    -3.692258457987     2.418529393455
C                     4.556387247869    -3.291555514952     2.897936429107
H                     4.521115560029    -3.769023243130     3.872108011539
C                     5.747725786121    -2.727735226051     2.435915738258
S                     7.190746451001    -2.757907852249     3.485416998405
O                     7.004614420935    -3.756589568385     4.538436143979
O                     8.380861785547    -2.707713441153     2.653633810976
O                     7.095734741325    -1.283586408275     4.230890308543
H                     6.817395296834    -1.440582295670     5.153723451667
C                     5.841058226004    -2.143727154652     1.171402480062
H                     6.786675728946    -1.737115784016     0.827202359612
C                     4.704628543909    -2.109909497618     0.363310508730
H                     4.761862493603    -1.653114013674    -0.621086846495
H                     1.623624957430    -3.451516853226     0.060038154985
H                     2.523004331564    -2.478014362460    -1.107816911561
H                     1.028498650580    -1.443771329213     1.346548214432
H                     3.015993123670     1.288044477562     1.209797435301
