16
0 1 BrC7H5O2S
O                    -3.329653162558    -0.864055488255    -0.634423091182
C                    -3.104163032396     0.031531124641     0.456783720335
H                    -2.925926516818    -0.539317722431     1.377612784693
C                    -1.961189497289     1.001749134172     0.221258860936
C                    -0.625784119756     0.893886869237    -0.030007342988
Br                    0.382325158269    -0.702189217857    -0.194163802393
S                     0.119940480764     2.467493795626    -0.217066269273
C                    -1.387820210913     3.276516108121     0.055228087602
H                    -1.445124535884     4.357812488836     0.038736517961
C                    -2.389709016118     2.361157402594     0.267420174380
C                    -3.847394530908     2.416075064260     0.535934671356
O                    -4.540643606714     3.407707388519     0.680077458149
C                    -4.335626067515     0.957482031721     0.602970051930
H                    -5.023116742750     0.776263872441    -0.228620266281
H                    -4.891990138391     0.795753241563     1.529591585288
H                    -2.538140905915    -1.417428141526    -0.740668386357
