18
0 1 C7FH6N3S
C                     1.346911870303    -0.089552019057    -1.705145992634
H                     1.985354909083     0.682812547605    -1.287955977965
C                     1.647975819377    -0.705041234310    -2.920795249451
H                     2.533009580338    -0.425828319331    -3.484278283132
C                     0.796911615769    -1.699217175834    -3.422081857726
C                    -0.357243936518    -2.062662836423    -2.683166931807
C                    -0.675377761257    -1.455425245462    -1.466154255199
H                    -1.553960788518    -1.718111887358    -0.885513936362
C                     0.198645769322    -0.475644596268    -1.008366029516
F                    -0.078456649354     0.136376243376     0.176449198383
S                    -1.246561498127    -3.318311085148    -3.539541788564
C                     0.015381477564    -3.243447982980    -4.790458933729
N                    -0.039777631789    -4.123111404893    -5.852237745467
N                    -1.296245380217    -4.702105845019    -6.122758834800
H                    -1.162362127723    -5.671474752673    -6.398089414714
H                    -1.789254159346    -4.200565072929    -6.862149533366
H                     0.547236642426    -3.840481047613    -6.634554532056
N                     0.973330121874    -2.386015592025    -4.620546724931
