
  -OEChem-12102412493D

 34 36  0     0  0  0  0  0  0999 V2000
   -1.8728   -1.7783    0.3188 O   0  0  0  0  0  0  0  0  0  0  0  0
   -0.5660   -2.0657    0.1049 C   0  0  0  0  0  0  0  0  0  0  0  0
    0.2090   -1.1206   -0.6054 C   0  0  0  0  0  0  0  0  0  0  0  0
   -0.2725   -0.2093   -0.9472 H   0  0  0  0  0  0  0  0  0  0  0  0
    1.5371   -1.3785   -0.8423 C   0  0  0  0  0  0  0  0  0  0  0  0
    2.1423   -0.6582   -1.3883 H   0  0  0  0  0  0  0  0  0  0  0  0
    2.1504   -2.5813   -0.3870 C   0  0  0  0  0  0  0  0  0  0  0  0
    3.5236   -2.8254   -0.6494 C   0  0  0  0  0  0  0  0  0  0  0  0
    4.0878   -2.0756   -1.2005 H   0  0  0  0  0  0  0  0  0  0  0  0
    4.1362   -3.9855   -0.2203 C   0  0  0  0  0  0  0  0  0  0  0  0
    5.1887   -4.1627   -0.4275 H   0  0  0  0  0  0  0  0  0  0  0  0
    3.3796   -4.9439    0.4921 C   0  0  0  0  0  0  0  0  0  0  0  0
    3.8566   -5.8603    0.8317 H   0  0  0  0  0  0  0  0  0  0  0  0
    2.0391   -4.7374    0.7665 C   0  0  0  0  0  0  0  0  0  0  0  0
    1.4706   -5.4752    1.3131 H   0  0  0  0  0  0  0  0  0  0  0  0
    1.3775   -3.5524    0.3384 C   0  0  0  0  0  0  0  0  0  0  0  0
   -0.0161   -3.2710    0.5828 C   0  0  0  0  0  0  0  0  0  0  0  0
   -0.9870   -4.0327    1.2432 N   0  0  0  0  0  0  0  0  0  0  0  0
   -0.6580   -5.1437    1.7671 N   0  0  0  0  0  0  0  0  0  0  0  0
   -1.6889   -5.8587    2.3973 C   0  0  0  0  0  0  0  0  0  0  0  0
   -1.2950   -7.0660    3.0053 C   0  0  0  0  0  0  0  0  0  0  0  0
   -0.2464   -7.3490    2.9549 H   0  0  0  0  0  0  0  0  0  0  0  0
   -2.2280   -7.8698    3.6572 C   0  0  0  0  0  0  0  0  0  0  0  0
   -1.9404   -8.7961    4.1450 H   0  0  0  0  0  0  0  0  0  0  0  0
   -3.5690   -7.4791    3.7032 C   0  0  0  0  0  0  0  0  0  0  0  0
   -4.8174   -8.5500    4.4933 S   0  0  0  0  0  0  0  0  0  0  0  0
   -4.0260   -9.4354    5.3872 O   0  0  0  0  0  0  0  0  0  0  0  0
   -5.7158   -7.5922    5.1901 O   0  0  0  0  0  0  0  0  0  0  0  0
   -5.4401   -9.2396    3.3306 O   0  5  0  0  0  0  0  0  0  0  0  0
   -3.9701   -6.2712    3.1046 C   0  0  0  0  0  0  0  0  0  0  0  0
   -5.0143   -5.9805    3.1734 H   0  0  0  0  0  0  0  0  0  0  0  0
   -3.0450   -5.4650    2.4570 C   0  0  0  0  0  0  0  0  0  0  0  0
   -3.3544   -4.5343    1.9927 H   0  0  0  0  0  0  0  0  0  0  0  0
   -2.2127   -2.5594    0.8169 H   0  0  0  0  0  0  0  0  0  0  0  0
  1  2  1  0  0  0  0
  1 34  1  0  0  0  0
  2  3  2  0  0  0  0
  2 17  1  0  0  0  0
  3  4  1  0  0  0  0
  3  5  1  0  0  0  0
  5  6  1  0  0  0  0
  5  7  2  0  0  0  0
  7  8  1  0  0  0  0
  7 16  1  0  0  0  0
  8  9  1  0  0  0  0
  8 10  2  0  0  0  0
 10 11  1  0  0  0  0
 10 12  1  0  0  0  0
 12 13  1  0  0  0  0
 12 14  2  0  0  0  0
 14 15  1  0  0  0  0
 14 16  1  0  0  0  0
 16 17  2  0  0  0  0
 17 18  1  0  0  0  0
 18 19  2  0  0  0  0
 19 20  1  0  0  0  0
 20 21  1  0  0  0  0
 20 32  2  0  0  0  0
 21 22  1  0  0  0  0
 21 23  2  0  0  0  0
 23 24  1  0  0  0  0
 23 25  1  0  0  0  0
 25 26  1  0  0  0  0
 25 30  2  0  0  0  0
 26 27  2  0  0  0  0
 26 28  2  0  0  0  0
 26 29  1  0  0  0  0
 30 31  1  0  0  0  0
 30 32  1  0  0  0  0
 32 33  1  0  0  0  0
M  CHG  1  29  -1
M  END
$$$$
