27
0 1 C9H11NO5S
O                     1.098656398951    -0.106824109208    -1.729379678872
C                     0.488000582506    -0.888887525748    -0.802159217454
O                    -0.663758135691    -1.261557951644    -0.910231126525
C                     1.423847368014    -1.259576611623     0.348199742352
N                     0.711180843560    -1.701466332441     1.541018690893
H                     0.305041393160    -0.899757121995     2.019693075405
H                    -0.075896373590    -2.283262109717     1.252049499727
C                     2.394723076024    -2.367358883244    -0.147520472011
C                     3.574381270918    -2.536175647590     0.778690292829
C                     3.454028227725    -3.247981666398     1.982403275021
H                     2.502252181572    -3.698893472358     2.241364752775
C                     4.537502109160    -3.367104732416     2.852349923825
H                     4.454152660858    -3.933648548251     3.774534644946
C                     5.748771392663    -2.761724997973     2.509116980563
S                     7.135715757083    -2.891186879621     3.624171782216
O                     6.910604311424    -4.000269313189     4.551956748715
O                     8.367796770640    -2.737695394218     2.868861898539
O                     6.983637894514    -1.507944199750     4.519791505730
H                     6.634934232580    -1.764067546662     5.395223229784
C                     5.903183064317    -2.056358203260     1.314551170423
H                     6.862447539512    -1.617211170883     1.060170377607
C                     4.807645577636    -1.948396405383     0.457467803590
H                     4.916344111901    -1.404523006929    -0.477920105900
H                     1.827412831668    -3.301207368601    -0.227320046124
H                     2.747873541062    -2.110811273794    -1.149867057838
H                     2.019735107951    -0.374915730092     0.591449377210
H                     0.445905138659     0.052174872682    -2.439017812109
