
  -OEChem-12122420533D

 27 27  0     1  0  0  0  0  0999 V2000
    1.0641   -0.0861   -1.6993 O   0  0  0  0  0  0  0  0  0  0  0  0
    0.4646   -0.8946   -0.7874 C   0  0  0  0  0  0  0  0  0  0  0  0
   -0.6802   -1.2849   -0.9056 O   0  0  0  0  0  0  0  0  0  0  0  0
    1.4033   -1.2696    0.3594 C   0  0  1  0  0  0  0  0  0  0  0  0
    0.6943   -1.7517    1.5385 N   0  0  0  0  0  0  0  0  0  0  0  0
    0.2823   -0.9685    2.0419 H   0  0  0  0  0  0  0  0  0  0  0  0
   -0.0873   -2.3326    1.2334 H   0  0  0  0  0  0  0  0  0  0  0  0
    2.3998   -2.3460   -0.1551 C   0  0  0  0  0  0  0  0  0  0  0  0
    3.5855   -2.5068    0.7655 C   0  0  0  0  0  0  0  0  0  0  0  0
    3.4725   -3.2073    1.9777 C   0  0  0  0  0  0  0  0  0  0  0  0
    2.5175   -3.6410    2.2531 H   0  0  0  0  0  0  0  0  0  0  0  0
    4.5614   -3.3219    2.8403 C   0  0  0  0  0  0  0  0  0  0  0  0
    4.4735   -3.8490    3.7850 H   0  0  0  0  0  0  0  0  0  0  0  0
    5.7748   -2.7307    2.4782 C   0  0  0  0  0  0  0  0  0  0  0  0
    7.1774   -2.8860    3.5707 S   0  0  0  0  0  0  0  0  0  0  0  0
    8.1951   -1.9042    3.1929 O   0  0  0  0  0  0  0  0  0  0  0  0
    6.7021   -3.0375    4.9355 O   0  0  0  0  0  0  0  0  0  0  0  0
    7.7840   -4.3651    3.1437 O   0  0  0  0  0  0  0  0  0  0  0  0
    8.5746   -4.2097    2.5921 H   0  0  0  0  0  0  0  0  0  0  0  0
    5.9165   -2.0207    1.2853 C   0  0  0  0  0  0  0  0  0  0  0  0
    6.8632   -1.5503    1.0389 H   0  0  0  0  0  0  0  0  0  0  0  0
    4.8139   -1.9150    0.4356 C   0  0  0  0  0  0  0  0  0  0  0  0
    4.9109   -1.3603   -0.4947 H   0  0  0  0  0  0  0  0  0  0  0  0
    1.8534   -3.2908   -0.2507 H   0  0  0  0  0  0  0  0  0  0  0  0
    2.7463   -2.0647   -1.1532 H   0  0  0  0  0  0  0  0  0  0  0  0
    1.9791   -0.3778    0.6239 H   0  0  0  0  0  0  0  0  0  0  0  0
    0.4097    0.0749   -2.4070 H   0  0  0  0  0  0  0  0  0  0  0  0
  1  2  1  0  0  0  0
  1 27  1  0  0  0  0
  2  3  2  0  0  0  0
  2  4  1  0  0  0  0
  4  5  1  0  0  0  0
  4  8  1  0  0  0  0
  4 26  1  0  0  0  0
  5  6  1  0  0  0  0
  5  7  1  0  0  0  0
  8  9  1  0  0  0  0
  8 24  1  0  0  0  0
  8 25  1  0  0  0  0
  9 10  2  0  0  0  0
  9 22  1  0  0  0  0
 10 11  1  0  0  0  0
 10 12  1  0  0  0  0
 12 13  1  0  0  0  0
 12 14  2  0  0  0  0
 14 15  1  0  0  0  0
 14 20  1  0  0  0  0
 15 16  2  0  0  0  0
 15 17  2  0  0  0  0
 15 18  1  0  0  0  0
 18 19  1  0  0  0  0
 20 21  1  0  0  0  0
 20 22  2  0  0  0  0
 22 23  1  0  0  0  0
M  END
$$$$
