18
0 1 C6H7N3OS
C                     3.646520158222     1.560252440965    -4.391222409538
H                     4.521387456571     1.556110734982    -5.031954399051
N                     2.584742034413     2.263017049078    -4.657211217773
N                     1.605626777936     2.110333643736    -3.705002765046
C                     1.969769655959     1.291727603866    -2.750136503903
N                     1.107408868305     1.016705693019    -1.701776266241
C                     1.384249439514     0.169319546197    -0.639748561293
O                     2.461916241367    -0.414432668020    -0.563008636896
C                     0.317259354106     0.007936456928     0.388860639698
H                     0.635591435086    -0.670923105163     1.171386456576
C                    -1.163137965015     0.002113554947     0.026529918449
H                    -1.434954596578     0.146149019310    -1.015128887809
H                    -1.786213258380    -0.715141645021     0.550963912693
C                    -0.595166804781     1.157993568761     0.798133009689
H                    -0.826026739521     1.238918575798     1.855425853919
H                    -0.468302511183     2.114080117844     0.298631840031
H                     0.219933716532     1.501575467351    -1.770683182564
S                     3.570018379444     0.615048294217    -2.920567957255
