
  -OEChem-12102412493D

 16 18  0     0  0  0  0  0  0999 V2000
   -0.0261   -1.0428   -0.2293 C   0  0  0  0  0  0  0  0  0  0  0  0
    0.0090    0.0154    0.0119 H   0  0  0  0  0  0  0  0  0  0  0  0
   -0.9350   -1.5058   -1.1945 C   0  0  0  0  0  0  0  0  0  0  0  0
   -1.5953   -0.8018   -1.6917 H   0  0  0  0  0  0  0  0  0  0  0  0
   -1.0031   -2.8608   -1.5257 C   0  0  0  0  0  0  0  0  0  0  0  0
   -1.6979   -3.2395   -2.2683 H   0  0  0  0  0  0  0  0  0  0  0  0
   -0.1391   -3.7304   -0.8650 C   0  0  0  0  0  0  0  0  0  0  0  0
    0.7778   -3.2775    0.1059 C   0  0  0  0  0  0  0  0  0  0  0  0
    0.8385   -1.9220    0.4300 C   0  0  0  0  0  0  0  0  0  0  0  0
    1.5388   -1.5567    1.1754 H   0  0  0  0  0  0  0  0  0  0  0  0
    1.7624   -4.5984    0.7940 S   0  0  0  0  0  0  0  0  0  0  0  0
    0.9165   -5.7255   -0.2407 C   0  0  0  0  0  0  0  0  0  0  0  0
    0.9142   -7.0205   -0.4970 N   0  0  0  0  0  0  0  0  0  0  0  0
   -0.0519   -7.1808   -1.4565 N   0  0  0  0  0  0  0  0  0  0  0  0
   -0.6207   -6.0552   -1.7844 N   0  0  0  0  0  0  0  0  0  0  0  0
   -0.0149   -5.1136   -1.0167 N   0  0  0  0  0  0  0  0  0  0  0  0
  1  2  1  0  0  0  0
  1  3  1  0  0  0  0
  1  9  2  0  0  0  0
  3  4  1  0  0  0  0
  3  5  2  0  0  0  0
  5  6  1  0  0  0  0
  5  7  1  0  0  0  0
  7  8  2  0  0  0  0
  7 16  1  0  0  0  0
  8  9  1  0  0  0  0
  8 11  1  0  0  0  0
  9 10  1  0  0  0  0
 11 12  1  0  0  0  0
 12 13  2  0  0  0  0
 12 16  1  0  0  0  0
 13 14  1  0  0  0  0
 14 15  2  0  0  0  0
 15 16  1  0  0  0  0
M  END
$$$$
