27
0 1 C9H11NO5S
O                     2.449939151303     0.529689131412     1.362099362084
C                     2.185695527176    -0.065894336921     0.175383932907
O                     2.572110055801     0.378506816604    -0.890086180923
C                     1.357985088648    -1.343405372768     0.321296859804
N                     0.170869299868    -1.343564231767    -0.534799115271
H                    -0.479591348075    -0.620476890383    -0.230305394066
H                     0.448867361557    -1.101951215018    -1.486337830737
C                     2.242825842805    -2.557053191414    -0.043064367320
C                     3.498875890493    -2.637806877329     0.790901146926
C                     3.462843896713    -3.200461341209     2.076627907681
H                     2.532418145429    -3.618780223162     2.453426714877
C                     4.599312568584    -3.226103898269     2.882699078249
H                     4.569608481180    -3.646539309145     3.882885663245
C                     5.786865113774    -2.684789526721     2.383496274577
S                     7.251040066285    -2.713356237671     3.403573868907
O                     8.238853101651    -1.785043236984     2.852567632621
O                     6.853607941131    -2.698171391775     4.800995624592
O                     7.837252256018    -4.233586974441     3.121460893478
H                     8.600473561248    -4.147727104160     2.518241011695
C                     5.855288854262    -2.116187116284     1.110964431151
H                     6.785347912197    -1.682320425786     0.757392010788
C                     4.704765389136    -2.096857003043     0.321126792832
H                     4.740814464757    -1.643999460106    -0.666105205957
H                     1.624457617771    -3.449157839431     0.088454108639
H                     2.499019183987    -2.483757649730    -1.104811904685
H                     1.039720403677    -1.431577181241     1.362973430542
H                     3.003550230658     1.312820501648     1.171338708917
