27
0 1 C9H11NO5S
O                     1.064118388855    -0.086096671792    -1.699300648247
C                     0.464638467009    -0.894600803379    -0.787389685709
O                    -0.680250006963    -1.284867313464    -0.905646536260
C                     1.403335512101    -1.269646017842     0.359397163880
N                     0.694280675028    -1.751663421173     1.538512655793
H                     0.282266706701    -0.968472417958     2.041937886140
H                    -0.087266857233    -2.332592824228     1.233371010011
C                     2.399799271919    -2.345963005050    -0.155129691044
C                     3.585459103688    -2.506817673832     0.765466514175
C                     3.472483663954    -3.207335220881     1.977667567619
H                     2.517476858636    -3.641028140167     2.253056738033
C                     4.561396582223    -3.321854233496     2.840275295818
H                     4.473524975981    -3.849011924010     3.785004442518
C                     5.774815087216    -2.730702343838     2.478240405797
S                     7.177382302800    -2.886037101635     3.570722275094
O                     8.195065364960    -1.904187009707     3.192915792778
O                     6.702075109922    -3.037522777862     4.935511307354
O                     7.783965814854    -4.365104884181     3.143718774889
H                     8.574583089957    -4.209717272164     2.592059592134
C                     5.916523886387    -2.020713657158     1.285301879081
H                     6.863151191741    -1.550298675841     1.038944836265
C                     4.813882089817    -1.915011456553     0.435617288087
H                     4.910927999025    -1.360251962108    -0.494683085240
H                     1.853386050400    -3.290817587915    -0.250696269485
H                     2.746279362965    -2.064721870242    -1.153198032584
H                     1.979065209301    -0.377802090145     0.623872308330
H                     0.409705723792     0.074909775598    -2.406961193331
