
  -OEChem-12122420533D

 28 28  0     1  0  0  0  0  0999 V2000
   -1.5029   -0.0812    0.3685 O   0  0  0  0  0  0  0  0  0  0  0  0
   -0.0898    0.0880    0.4584 C   0  0  2  0  0  0  0  0  0  0  0  0
    0.3531   -0.4939    1.7998 C   0  0  0  0  0  0  0  0  0  0  0  0
   -0.5589   -1.1540    2.6310 C   0  0  0  0  0  0  0  0  0  0  0  0
   -1.5908   -1.2463    2.3141 H   0  0  0  0  0  0  0  0  0  0  0  0
   -0.1549   -1.6845    3.8596 C   0  0  0  0  0  0  0  0  0  0  0  0
   -0.8678   -2.1932    4.5011 H   0  0  0  0  0  0  0  0  0  0  0  0
    1.1750   -1.5535    4.2589 C   0  0  0  0  0  0  0  0  0  0  0  0
    1.6899   -2.2160    5.8003 Cl  0  0  0  0  0  0  0  0  0  0  0  0
    2.1036   -0.8981    3.4472 C   0  0  0  0  0  0  0  0  0  0  0  0
    3.1353   -0.7977    3.7688 H   0  0  0  0  0  0  0  0  0  0  0  0
    1.6853   -0.3733    2.2237 C   0  0  0  0  0  0  0  0  0  0  0  0
    2.4179    0.1421    1.6078 H   0  0  0  0  0  0  0  0  0  0  0  0
    0.2596    1.6027    0.3721 C   0  0  0  0  0  0  0  0  0  0  0  0
   -0.3190    2.4188    1.4314 N   0  0  0  0  0  0  0  0  0  0  0  0
   -1.3249    2.2570    1.4605 H   0  0  0  0  0  0  0  0  0  0  0  0
    0.0450    2.1240    2.3363 H   0  0  0  0  0  0  0  0  0  0  0  0
    1.3456    1.7378    0.3691 H   0  0  0  0  0  0  0  0  0  0  0  0
   -0.0994    1.9902   -0.5868 H   0  0  0  0  0  0  0  0  0  0  0  0
    0.6138   -0.7601   -0.6342 C   0  0  0  0  0  0  0  0  0  0  0  0
    0.3146   -0.1583   -2.3194 S   0  0  0  0  0  0  0  0  0  0  0  0
    1.3255    0.8140   -2.7350 O   0  0  0  0  0  0  0  0  0  0  0  0
   -1.1107    0.1487   -2.4495 O   0  0  0  0  0  0  0  0  0  0  0  0
    0.6102   -1.5431   -3.1625 O   0  0  0  0  0  0  0  0  0  0  0  0
    1.2891   -1.3389   -3.8357 H   0  0  0  0  0  0  0  0  0  0  0  0
    0.2233   -1.7796   -0.6097 H   0  0  0  0  0  0  0  0  0  0  0  0
    1.6983   -0.7768   -0.5205 H   0  0  0  0  0  0  0  0  0  0  0  0
   -1.7771    0.1414   -0.5418 H   0  0  0  0  0  0  0  0  0  0  0  0
  1  2  1  0  0  0  0
  1 28  1  0  0  0  0
  2  3  1  0  0  0  0
  2 14  1  0  0  0  0
  2 20  1  0  0  0  0
  3  4  2  0  0  0  0
  3 12  1  0  0  0  0
  4  5  1  0  0  0  0
  4  6  1  0  0  0  0
  6  7  1  0  0  0  0
  6  8  2  0  0  0  0
  8  9  1  0  0  0  0
  8 10  1  0  0  0  0
 10 11  1  0  0  0  0
 10 12  2  0  0  0  0
 12 13  1  0  0  0  0
 14 15  1  0  0  0  0
 14 18  1  0  0  0  0
 14 19  1  0  0  0  0
 15 16  1  0  0  0  0
 15 17  1  0  0  0  0
 20 21  1  0  0  0  0
 20 26  1  0  0  0  0
 20 27  1  0  0  0  0
 21 22  2  0  0  0  0
 21 23  2  0  0  0  0
 21 24  1  0  0  0  0
 24 25  1  0  0  0  0
M  END
$$$$
