16
0 1 C7H4N4S
C                    -0.026136141812    -1.042824832367    -0.229339185272
H                     0.008973591343     0.015436448492     0.011945096009
C                    -0.935005129154    -1.505795121137    -1.194488455015
H                    -1.595343938672    -0.801755021317    -1.691711061689
C                    -1.003062673720    -2.860839370938    -1.525664873423
H                    -1.697855354158    -3.239468041178    -2.268323077219
C                    -0.139106247439    -3.730441197288    -0.865003974903
C                     0.777784166816    -3.277546130395     0.105871542603
C                     0.838455672838    -1.921981122593     0.430036442346
H                     1.538817218445    -1.556738704286     1.175403112693
S                     1.762396801914    -4.598414697735     0.793993044699
C                     0.916509872340    -5.725482753422    -0.240693629554
N                     0.914223609827    -7.020476179735    -0.496982730644
N                    -0.051857514525    -7.180829998163    -1.456513429602
N                    -0.620719661012    -6.055216333122    -1.784400392508
N                    -0.014872996474    -5.113558758499    -1.016682102299
