
  -OEChem-12102412493D

 22 23  0     0  0  0  0  0  0999 V2000
   -4.4483    2.6607   -1.1219 C   0  0  0  0  0  0  0  0  0  0  0  0
   -4.6459    3.7152   -1.2829 H   0  0  0  0  0  0  0  0  0  0  0  0
   -5.4286    1.7137   -1.1742 C   0  0  0  0  0  0  0  0  0  0  0  0
   -7.1310    2.0283   -1.5641 S   0  0  0  0  0  0  0  0  0  0  0  0
   -7.9441    1.0834   -0.8041 O   0  0  0  0  0  0  0  0  0  0  0  0
   -7.3121    3.4764   -1.5159 O   0  0  0  0  0  0  0  0  0  0  0  0
   -7.3407    1.5933   -3.1809 N   0  0  0  0  0  0  0  0  0  0  0  0
   -6.7477    2.1416   -3.8015 H   0  0  0  0  0  0  0  0  0  0  0  0
   -7.2204    0.5917   -3.3216 H   0  0  0  0  0  0  0  0  0  0  0  0
   -4.8598    0.0825   -0.8349 S   0  0  0  0  0  0  0  0  0  0  0  0
   -3.2225    0.6892   -0.6460 C   0  0  0  0  0  0  0  0  0  0  0  0
   -2.0897   -0.0702   -0.3439 C   0  0  0  0  0  0  0  0  0  0  0  0
   -2.1562   -1.1469   -0.2084 H   0  0  0  0  0  0  0  0  0  0  0  0
   -0.8576    0.5837   -0.2058 C   0  0  0  0  0  0  0  0  0  0  0  0
    0.2904   -0.1266    0.1571 N   0  0  0  0  0  0  0  0  0  0  0  0
    1.1647    0.3008   -0.1243 H   0  0  0  0  0  0  0  0  0  0  0  0
    0.2705   -1.1166   -0.0576 H   0  0  0  0  0  0  0  0  0  0  0  0
   -0.7871    1.9929   -0.3720 C   0  0  0  0  0  0  0  0  0  0  0  0
    0.1729    2.4895   -0.2515 H   0  0  0  0  0  0  0  0  0  0  0  0
   -1.9152    2.7364   -0.6722 C   0  0  0  0  0  0  0  0  0  0  0  0
   -1.8402    3.8139   -0.7941 H   0  0  0  0  0  0  0  0  0  0  0  0
   -3.1635    2.0975   -0.8182 C   0  0  0  0  0  0  0  0  0  0  0  0
  1  2  1  0  0  0  0
  1  3  2  0  0  0  0
  1 22  1  0  0  0  0
  3  4  1  0  0  0  0
  3 10  1  0  0  0  0
  4  5  2  0  0  0  0
  4  6  2  0  0  0  0
  4  7  1  0  0  0  0
  7  8  1  0  0  0  0
  7  9  1  0  0  0  0
 10 11  1  0  0  0  0
 11 12  2  0  0  0  0
 11 22  1  0  0  0  0
 12 13  1  0  0  0  0
 12 14  1  0  0  0  0
 14 15  1  0  0  0  0
 14 18  2  0  0  0  0
 15 16  1  0  0  0  0
 15 17  1  0  0  0  0
 18 19  1  0  0  0  0
 18 20  1  0  0  0  0
 20 21  1  0  0  0  0
 20 22  2  0  0  0  0
M  END
$$$$
