34
-1 1 C16H11N2O4S
O                    -1.829274328926    -1.601684979228     0.438195524126
C                    -0.518894212653    -1.938903982244     0.222929002422
C                     0.360527269440    -0.989753200108    -0.359889293394
H                    -0.023745128670     0.004067594715    -0.589753771717
C                     1.674926915260    -1.298521911161    -0.628507244515
H                     2.332170757777    -0.552015647107    -1.068277144928
C                     2.183231619873    -2.591158853145    -0.336291101361
C                     3.535559894099    -2.941608715206    -0.601938907800
H                     4.194093399688    -2.190960813963    -1.034573874839
C                     4.006891225132    -4.205956531439    -0.318610819784
H                     5.042516453378    -4.465209607004    -0.524824447648
C                     3.134273596691    -5.172703646478     0.244315101421
H                     3.508034476898    -6.170045988635     0.463135683107
C                     1.818206312392    -4.860602452525     0.518071585512
H                     1.150351715370    -5.597263628579     0.950277485085
C                     1.303436787383    -3.563087602638     0.237901039703
C                    -0.061196476274    -3.224617629988     0.533360494106
N                    -0.867136484978    -4.272405483119     1.017252116115
N                    -1.788050662199    -3.926990313584     1.819293861520
C                    -2.631974317863    -4.968569330503     2.248232705663
C                    -3.574211696080    -4.614175299020     3.230988786018
H                    -3.586255436014    -3.585379832942     3.582000941200
C                    -4.455175412236    -5.566671184932     3.739693014133
H                    -5.173416591058    -5.319026204162     4.515307252755
C                    -4.410216532293    -6.879740394577     3.260961838323
S                    -5.601527812627    -8.118416496085     3.876264222269
O                    -4.856978509400    -9.403735716304     3.801894747187
O                    -5.923732793443    -7.658422628038     5.253022274640
O                    -6.727643439295    -8.004012357259     2.909438884255
C                    -3.473928709331    -7.239282875811     2.276078317411
H                    -3.452628527544    -8.270891765447     1.937022217499
C                    -2.588661168462    -6.296602835566     1.769967406885
H                    -1.861494283542    -6.560194164113     1.008350604000
H                    -2.007245774348    -0.771713705152    -0.032666410846
