28
0 1 C10H10N2O4S2
O                    -1.813314587673     1.208484207968    -1.232451331769
S                    -0.393489373927     1.588375114025    -0.497813623533
O                     0.393682719405     2.378438859182    -1.441680576512
O                    -0.704520285805     2.124611839733     0.828595265158
C                     0.304768438263    -0.068548086548    -0.301560142670
C                     1.549836582426    -0.058565687646     0.609329237971
C                     1.296537951713    -0.531599752190     2.048224723073
O                     1.854349338135    -1.517590724585     2.492254298944
N                     0.399361203633     0.262147341525     2.752096221742
C                    -0.064941537478     0.055002393521     4.045531612761
N                     0.190465472828    -0.953487897387     4.808933584383
C                    -0.453648789870    -0.815171171763     6.033000140292
C                    -0.384868378651    -1.737310425978     7.087200790408
H                     0.213193247727    -2.635639171678     6.967253774306
C                    -1.086780164773    -1.474986466266     8.262755697584
H                    -1.039359160854    -2.183395225591     9.085270430836
C                    -1.856228769209    -0.305325598364     8.400534869122
H                    -2.395034581481    -0.119844445684     9.325604394515
C                    -1.937864371279     0.625168697244     7.361797147526
H                    -2.532630932877     1.527381471376     7.471399299504
C                    -1.233053403141     0.359504645064     6.185587568764
S                    -1.134810225202     1.321327612696     4.720285918595
H                     0.013716871271     1.068489186236     2.262090983668
H                     2.024716390621     0.928854322514     0.614394638651
H                     2.279672060393    -0.757921875930     0.201626397004
H                     0.548514293175    -0.389707788911    -1.315731108601
H                    -0.500054969485    -0.697225450953     0.086175233441
H                    -1.871886715406     1.726390547313    -2.059844962485
