
  -OEChem-12102412493D

 16 17  0     1  0  0  0  0  0999 V2000
   -3.3297   -0.8641   -0.6344 O   0  0  0  0  0  0  0  0  0  0  0  0
   -3.1042    0.0315    0.4568 C   0  0  1  0  0  0  0  0  0  0  0  0
   -2.9259   -0.5393    1.3776 H   0  0  0  0  0  0  0  0  0  0  0  0
   -1.9612    1.0017    0.2213 C   0  0  0  0  0  0  0  0  0  0  0  0
   -0.6258    0.8939   -0.0300 C   0  0  0  0  0  0  0  0  0  0  0  0
    0.3823   -0.7022   -0.1942 Br  0  0  0  0  0  0  0  0  0  0  0  0
    0.1199    2.4675   -0.2171 S   0  0  0  0  0  0  0  0  0  0  0  0
   -1.3878    3.2765    0.0552 C   0  0  0  0  0  0  0  0  0  0  0  0
   -1.4451    4.3578    0.0387 H   0  0  0  0  0  0  0  0  0  0  0  0
   -2.3897    2.3612    0.2674 C   0  0  0  0  0  0  0  0  0  0  0  0
   -3.8474    2.4161    0.5359 C   0  0  0  0  0  0  0  0  0  0  0  0
   -4.5406    3.4077    0.6801 O   0  0  0  0  0  0  0  0  0  0  0  0
   -4.3356    0.9575    0.6030 C   0  0  0  0  0  0  0  0  0  0  0  0
   -5.0231    0.7763   -0.2286 H   0  0  0  0  0  0  0  0  0  0  0  0
   -4.8920    0.7958    1.5296 H   0  0  0  0  0  0  0  0  0  0  0  0
   -2.5381   -1.4174   -0.7407 H   0  0  0  0  0  0  0  0  0  0  0  0
  1  2  1  0  0  0  0
  1 16  1  0  0  0  0
  2  3  1  0  0  0  0
  2  4  1  0  0  0  0
  2 13  1  0  0  0  0
  4  5  2  0  0  0  0
  4 10  1  0  0  0  0
  5  6  1  0  0  0  0
  5  7  1  0  0  0  0
  7  8  1  0  0  0  0
  8  9  1  0  0  0  0
  8 10  2  0  0  0  0
 10 11  1  0  0  0  0
 11 12  2  0  0  0  0
 11 13  1  0  0  0  0
 13 14  1  0  0  0  0
 13 15  1  0  0  0  0
M  END
$$$$
