
  -OEChem-12122420533D

 19 20  0     0  0  0  0  0  0999 V2000
   -0.3234   -1.1164   -1.8354 C   0  0  0  0  0  0  0  0  0  0  0  0
   -0.7170   -1.6116   -2.7187 H   0  0  0  0  0  0  0  0  0  0  0  0
    0.9585   -1.1746   -1.4594 C   0  0  0  0  0  0  0  0  0  0  0  0
    2.1880   -2.1830   -2.5084 Br  0  0  0  0  0  0  0  0  0  0  0  0
    1.5449   -0.4921   -0.2570 C   0  0  0  0  0  0  0  0  0  0  0  0
    2.7464   -0.5411   -0.0443 O   0  0  0  0  0  0  0  0  0  0  0  0
    0.6283    0.2293    0.6804 C   0  0  0  0  0  0  0  0  0  0  0  0
    1.1958    0.7602    1.8519 C   0  0  0  0  0  0  0  0  0  0  0  0
    2.2619    0.6304    2.0056 H   0  0  0  0  0  0  0  0  0  0  0  0
    0.4070    1.4274    2.7852 C   0  0  0  0  0  0  0  0  0  0  0  0
    0.8607    1.8309    3.6857 H   0  0  0  0  0  0  0  0  0  0  0  0
   -0.9689    1.5744    2.5679 C   0  0  0  0  0  0  0  0  0  0  0  0
   -1.5866    2.0901    3.2975 H   0  0  0  0  0  0  0  0  0  0  0  0
   -1.5532    1.0566    1.4115 C   0  0  0  0  0  0  0  0  0  0  0  0
   -2.6192    1.1614    1.2337 H   0  0  0  0  0  0  0  0  0  0  0  0
   -0.7501    0.3938    0.4829 C   0  0  0  0  0  0  0  0  0  0  0  0
   -1.5872   -0.1900   -0.9891 S   0  0  0  0  0  0  0  0  0  0  0  0
   -2.6400   -1.1327   -0.5927 O   0  0  0  0  0  0  0  0  0  0  0  0
   -1.9269    0.9609   -1.8343 O   0  0  0  0  0  0  0  0  0  0  0  0
  1  2  1  0  0  0  0
  1  3  2  0  0  0  0
  1 17  1  0  0  0  0
  3  4  1  0  0  0  0
  3  5  1  0  0  0  0
  5  6  2  0  0  0  0
  5  7  1  0  0  0  0
  7  8  1  0  0  0  0
  7 16  2  0  0  0  0
  8  9  1  0  0  0  0
  8 10  2  0  0  0  0
 10 11  1  0  0  0  0
 10 12  1  0  0  0  0
 12 13  1  0  0  0  0
 12 14  2  0  0  0  0
 14 15  1  0  0  0  0
 14 16  1  0  0  0  0
 16 17  1  0  0  0  0
 17 18  2  0  0  0  0
 17 19  2  0  0  0  0
M  END
$$$$
