28
0 1 C9ClH12NO4S
O                    -1.446876493459     0.011977613949     0.170547591875
C                    -0.044203183136     0.100103664468     0.407666687581
C                     0.351996408918    -0.526146221193     1.743068128035
C                    -0.626336945896    -0.813385637894     2.702219232304
H                    -1.669639117275    -0.629681896212     2.469956697492
C                    -0.281359691670    -1.333860502875     3.952228166497
H                    -1.047450973627    -1.558802326071     4.687556752624
C                     1.062118061957    -1.561594365578     4.247952865686
Cl                    1.507692528360    -2.218249667784     5.813136502697
C                     2.058386158501    -1.275075857575     3.312560357646
H                     3.100461718272    -1.463631297011     3.549447827195
C                     1.696283877762    -0.757503116836     2.069694003438
H                     2.486162701943    -0.552822647645     1.353247460333
C                     0.264068508805     1.629562410402     0.422924258300
N                    -0.457923409293     2.397843856290     1.422686379672
H                    -1.457432049490     2.236601406448     1.310239233423
H                    -0.211577151109     2.077636641156     2.358013047483
H                     1.339320765006     1.769906996015     0.573021606365
H                     0.010463923705     2.026821637486    -0.566273623243
C                     0.715341293000    -0.500413423544    -0.797352997189
S                     0.542069824934    -2.306868927339    -0.905602773304
O                    -0.854422997200    -2.663952184489    -0.605582874991
O                     1.651719949230    -2.964663839128    -0.240527589621
O                     0.736065698231    -2.539385229083    -2.527756829759
H                    -0.119271484351    -2.846252056073    -2.887704729529
H                     1.788848365094    -0.308815934827    -0.773588590593
H                     0.291467891871    -0.098429786991    -1.718774105011
H                    -1.677627941579    -0.931455757682     0.070700858818
