29   
torsion grid (-165,)
C       -2.2703225267   -0.5576603860    1.0216318623
C       -3.1719320286   -1.1768068246    1.8531377454
C       -0.8917676049   -0.6156652252    1.3498430840
C       -2.6442584906   -1.8301254107    2.9873669239
C       -0.1292507929    1.0316895367   -0.5497438314
C        0.3858493146   -0.3343450153   -0.9400907554
C        0.2021395138    0.0209417224    0.5344826834
C       -0.4391150491   -1.0726036771   -3.2087823209
C       -2.9702872109   -3.1075588221    4.9658652160
C       -0.4648024645   -1.3340400798   -1.6965561084
N       -0.4791728114   -1.2331928048    2.4593193741
N       -1.3504191622   -1.8461471557    3.2765280584
N        1.4529143584    0.2861594138    1.2206983541
O       -3.5208232099   -2.4517123935    3.8086388478
H       -2.6181935866   -0.0204298282    0.1465107279
H       -4.2427760063   -1.1700930369    1.6748805760
H        0.5438969577    1.8793640961   -0.6245980011
H       -1.1717390161    1.2585218720   -0.7536957136
H        1.4390700190   -0.3549871811   -1.2105518997
H       -0.8267983755   -0.0741804636   -3.4395151103
H       -1.0466565733   -1.8064880384   -3.7492521893
H        0.5822958553   -1.1291147390   -3.6012877640
H       -3.8289277508   -3.5387270371    5.4815299027
H       -2.4539278044   -2.3899974452    5.6086796874
H       -2.2655251384   -3.8888001464    4.6696494931
H       -0.0956184167   -2.3465581294   -1.4895302358
H       -1.5009475675   -1.3140963697   -1.3457392671
H        1.7487944824   -0.5737468228    1.6829822314
H        1.2723363130    0.9413630085    1.9826146981
29   
torsion grid (-150,)
C       -2.2943516807   -0.8234328667    0.9837659890
C       -3.2046732704   -1.4030920859    1.8326026057
C       -0.9353448084   -0.7480953835    1.3887505844
C       -2.7101608764   -1.8759940575    3.0674990807
C       -0.1976233937    0.9877112909   -0.4223543082
C        0.3230795310   -0.3396781743   -0.9245151174
C        0.1575077817   -0.1067723187    0.5749210935
C       -0.4394678357   -0.8998226398   -3.2613781699
C       -3.0818991039   -2.9209146913    5.1701527818
C       -0.4930027361   -1.2898117660   -1.7775220474
N       -0.5601552925   -1.1840310143    2.5935815493
N       -1.4420167370   -1.7553609630    3.4314813800
N        1.4228896743    0.1126264368    1.2503434806
O       -3.5956644995   -2.4592129089    3.9071701681
H       -2.6247929609   -0.4123832337    0.0372724751
H       -4.2604582088   -1.4918610709    1.5960039186
H        0.4668661974    1.8452163224   -0.4418378881
H       -1.2481168563    1.2158546257   -0.5804557897
H        1.3763608526   -0.3184994122   -1.1950623376
H       -0.8464085664    0.1055472734   -3.4157903550
H       -1.0165182695   -1.5986243724   -3.8765249866
H        0.5915833810   -0.8995532569   -3.6320421148
H       -3.9414985658   -3.3517408726    5.6845235402
H       -2.6639738026   -2.0904825088    5.7450178883
H       -2.3043232103   -3.6742753828    5.0198454032
H       -0.1031726595   -2.3075680720   -1.6488589322
H       -1.5366844074   -1.3260057462   -1.4559445118
H        1.7602275624   -0.7857500463    1.5968355047
H        1.2467672587    0.6568418745    2.0957590724
29   
torsion grid (-135,)
C       -2.2632908675   -1.0576807951    0.9224334560
C       -3.1552739110   -1.6335856608    1.7929722651
C       -0.9406773483   -0.8025382463    1.3698729812
C       -2.6816101466   -1.9210899520    3.0914010151
C       -0.2541638991    1.0667761766   -0.3213383633
C        0.2163451120   -0.2105824092   -0.9770921489
C        0.1249277061   -0.1309738310    0.5439579665
C       -0.2331466419   -0.8294121458   -3.3754278077
C       -3.0569349255   -2.7707960385    5.2795155446
C       -0.6489915994   -1.0389086093   -1.9123416367
N       -0.5828017222   -1.0829654326    2.6254319265
N       -1.4476540512   -1.6458107762    3.4865000617
N        1.4306131745    0.0018730386    1.1647062404
O       -3.5501119620   -2.4938078373    3.9558085125
H       -2.5776087955   -0.7995996141   -0.0804729680
H       -4.1823463078   -1.8591103781    1.5230139291
H        0.4165862501    1.9186653255   -0.2793406955
H       -1.3110608980    1.3081594935   -0.4037277889
H        1.2610020410   -0.1851930369   -1.2787583336
H       -0.3099329222    0.2269314555   -3.6553366808
H       -0.8694729668   -1.4072346492   -4.0541238808
H        0.8036708019   -1.1428518407   -3.5393905777
H       -3.8977208623   -3.2242937009    5.8053768835
H       -2.7422062396   -1.8494214873    5.7762871920
H       -2.2089265929   -3.4594168090    5.2406157120
H       -0.5716050151   -2.1033414886   -1.6563890710
H       -1.7052046686   -0.7711816019   -1.8170840871
H        1.7975079541   -0.9333910756    1.3449588313
H        1.3026662054    0.4036671452    2.0938506371
29   
torsion grid (-120,)
C       -1.9018030143   -1.7275341106    0.9872936801
C       -2.7719883489   -2.2484598348    1.9148851216
C       -1.3811020317   -0.4257897954    1.1978836301
C       -3.0924627298   -1.4295678643    3.0177891577
C       -0.9234509685    0.5294185316   -1.1865780130
C        0.2965862157   -0.3182587425   -0.9140979148
C       -0.4620737411    0.3060652507    0.2519728302
C        1.2463684284   -1.9524297685   -2.5742687084
C       -4.2698637992   -1.0818384597    5.0538174371
C        0.3871592822   -1.7827572610   -1.3130721789
N       -1.7426541429    0.2845436982    2.2703962834
N       -2.5948891091   -0.2116102936    3.1806588964
N        0.2408180128    1.4501134658    0.8083192956
O       -3.9496583567   -1.9306723247    3.9362324747
H       -1.6235568795   -2.3111952272    0.1207246844
H       -3.2050132985   -3.2400691033    1.8258462774
H       -0.8003364299    1.5333196182   -1.5798808362
H       -1.8237936678    0.0072730857   -1.5016679999
H        1.2349307233    0.2131743827   -1.0564554376
H        0.8334473390   -1.3734393393   -3.4074353612
H        1.2949598665   -3.0024388064   -2.8817180273
H        2.2710788003   -1.6051730198   -2.4025780196
H       -4.9606663568   -1.6654353237    5.6631751716
H       -4.7418141355   -0.1561349585    4.7145274301
H       -3.3696347725   -0.8329290999    5.6216411847
H        0.8148063203   -2.3786560451   -0.4964766575
H       -0.6059646290   -2.1932210049   -1.5213581230
H        0.9013554810    1.1135717724    1.5102222660
H       -0.4332216501    2.0083176078    1.3328250360
29   
torsion grid (-105,)
C       -1.5709332381   -1.8510605238    1.1910823747
C       -2.4548611355   -2.3721843190    2.1086192428
C       -1.3042942879   -0.4614464650    1.2206462090
C       -3.0353781298   -1.4668148225    3.0189082882
C       -0.8319741520    0.5736110201   -1.1315837687
C        0.3615978004   -0.3210976406   -0.9006016469
C       -0.3722482855    0.2806574948    0.2925051217
C        1.0056910656   -1.8471558839   -2.7897622525
C       -4.4945522472   -1.0257914069    4.8440865217
C        0.3716272855   -1.7578766821   -1.3941984427
N       -1.8774727850    0.3223928124    2.1402584572
N       -2.7443272877   -0.1713606569    3.0338570258
N        0.3597185069    1.3855178938    0.8927219654
O       -3.9163903984   -1.9630547261    3.9169227189
H       -1.0806923624   -2.5020244301    0.4810151154
H       -2.7007271019   -3.4286164940    2.1563228856
H       -0.6833190393    1.5885026782   -1.4864356604
H       -1.7476301391    0.0894531318   -1.4625320114
H        1.3189318958    0.1779251901   -1.0347652417
H        0.4575219598   -1.2251018070   -3.5054640531
H        1.0020851727   -2.8773375830   -3.1615314792
H        2.0445025179   -1.4995416283   -2.7737580392
H       -5.1651213966   -1.6202948989    5.4653623747
H       -5.0488528500   -0.2474638012    4.3133261713
H       -3.7189261547   -0.5552151004    5.4537536925
H        0.9290442182   -2.4011207343   -0.7004295822
H       -0.6476055573   -2.1532180653   -1.4534529021
H        0.9983323961    1.0119396483    1.5960080250
H       -0.3094743425    1.9580605686    1.4082099175
29   
torsion grid (-90,)
C       -1.2532144627   -1.8659594182    1.4448438080
C       -2.1392402462   -2.3941206141    2.3578918193
C       -1.2326377244   -0.4650478652    1.2568338920
C       -2.9588186813   -1.4789856761    3.0471813534
C       -0.7260162317    0.6309179010   -1.0595016251
C        0.4062395656   -0.3480680832   -0.8573438335
C       -0.2822261031    0.2763156064    0.3490099446
C        0.6591188711   -1.8560845481   -2.8543863525
C       -4.6667228574   -1.0333537673    4.6417333050
C        0.2697612915   -1.7700690838   -1.3718519452
N       -2.0132682247    0.3378890791    1.9878399473
N       -2.8805058940   -0.1627643530    2.8756328651
N        0.5034021267    1.3192323467    0.9918017355
O       -3.8466154779   -1.9820439434    3.9343835454
H       -0.5733943114   -2.5101443581    0.9026360898
H       -2.2115779348   -3.4572740171    2.5658630194
H       -0.5076608232    1.6392100155   -1.3967371597
H       -1.6743762013    0.2204295716   -1.3970539305
H        1.3972934520    0.0752909896   -1.0060750207
H        0.0253216534   -1.1999519245   -3.4603657667
H        0.5533748708   -2.8780397536   -3.2339343571
H        1.6991146062   -1.5469173082   -3.0069183920
H       -5.3024358448   -1.6377691771    5.2895170309
H       -5.2716518654   -0.4481259845    3.9444351448
H       -4.0493522581   -0.3522840539    5.2330465993
H        0.9076628394   -2.4512751925   -0.7926159354
H       -0.7613453036   -2.1210461705   -1.2565199894
H        1.0872986531    0.9004626532    1.7164911506
H       -0.1431195592    1.9450617855    1.4735744210
29   
torsion grid (-75,)
C       -0.9861270984   -1.7814694289    1.6081036561
C       -1.8720547353   -2.3358048674    2.5043316057
C       -1.1590887333   -0.4277754165    1.2387184733
C       -2.8855852332   -1.4867297453    2.9938236373
C       -0.6318810564    0.7432489141   -1.0288166601
C        0.4373299703   -0.3153683342   -0.8723558502
C       -0.1951281697    0.3208280460    0.3558934447
C        0.3897222885   -1.8227524429   -2.8930130027
C       -4.7955644482   -1.1373802860    4.3679930612
C        0.1709859835   -1.7217655075   -1.3770487036
N       -2.1270382664    0.3203548716    1.7748875016
N       -2.9951090141   -0.2073407278    2.6488021596
N        0.6480803986    1.2895479394    1.0405863444
O       -3.7716149061   -2.0169204946    3.8667193170
H       -0.1664577982   -2.3622974101    1.2003925809
H       -1.8115940482   -3.3661065998    2.8413791290
H       -0.3448888818    1.7404751499   -1.3467402323
H       -1.6124447878    0.4127885411   -1.3610721556
H        1.4526436314    0.0363863785   -1.0426197978
H       -0.2753773911   -1.1364254703   -3.4276816125
H        0.1953908639   -2.8378516125   -3.2557448563
H        1.4198700674   -1.5619360084   -3.1602434089
H       -5.3937334766   -1.7545887771    5.0390502549
H       -5.4083953684   -0.7503391531    3.5499549234
H       -4.3535722943   -0.2961914072    4.9080381168
H        0.8308252130   -2.4389478983   -0.8704945064
H       -0.8568827667   -2.0197053056   -1.1415316441
H        1.1923979463    0.8196420845    1.7644602869
H        0.0426899374    1.9579277610    1.5186857940
29   
torsion grid (-60,)
C       -0.7777071772   -1.6793467999    1.7743493284
C       -1.6675800366   -2.2519222836    2.6525852422
C       -1.0779912885   -0.4012548856    1.2460806988
C       -2.8177241562   -1.4938937200    2.9615805153
C       -0.5590716487    0.8255868296   -0.9865253095
C        0.4411916886   -0.3081834518   -0.8941001651
C       -0.1068371111    0.3379989151    0.3669727750
C        0.1731409519   -1.8225680193   -2.8978177624
C       -4.8750965021   -1.2616974274    4.1328332388
C        0.0499796657   -1.6932278854   -1.3736127242
N       -2.1823684058    0.2586492474    1.5969825684
N       -3.0570238855   -0.2887579808    2.4564020889
N        0.8160915912    1.2244496278    1.0614285286
O       -3.7054789521   -2.0418724649    3.8215081836
H        0.1357310388   -2.1890688318    1.4829708779
H       -1.5203761289   -3.2299030481    3.1005319256
H       -0.2099364955    1.8062469559   -1.2931298870
H       -1.5728336722    0.5768334447   -1.2873866738
H        1.4719515298   -0.0282755471   -1.1013646279
H       -0.4734076903   -1.0967293477   -3.4022966906
H       -0.1109743509   -2.8248851780   -3.2361381315
H        1.2014339170   -1.6358245672   -3.2272986760
H       -5.4481576065   -1.8773475869    4.8268474840
H       -5.4548183600   -1.0556901839    3.2295097371
H       -4.5954453065   -0.3130905226    4.5981088724
H        0.6836763927   -2.4510979235   -0.8935185729
H       -0.9802270424   -1.9158248292   -1.0730241402
H        1.3481543949    0.6996822676    1.7560600961
H        0.2758181904    1.9243341734    1.5712260265
29   
torsion grid (-45,)
C       -0.6252069888   -1.5340576141    1.9628374565
C       -1.5278623830   -2.1182257301    2.8176327462
C       -1.0078620045   -0.3557223246    1.2757263651
C       -2.7788976517   -1.4724110779    2.9409080383
C       -0.4964936600    0.8980311104   -0.9386774077
C        0.4240989102   -0.3054847750   -0.9029565543
C       -0.0272221140    0.3578913585    0.3869146013
C       -0.0209479138   -1.8258514951   -2.8731847537
C       -4.9529438886   -1.3709037179    3.8999633777
C       -0.0848259639   -1.6624145896   -1.3488408488
N       -2.2094082606    0.1933479276    1.4427548704
N       -3.1007015851   -0.3675203359    2.2802736459
N        0.9829954329    1.1575357252    1.0643935191
O       -3.6788540199   -2.0313547238    3.7809145182
H        0.3592263351   -1.9645467042    1.7984245525
H       -1.3234599487   -3.0264251076    3.3763438558
H       -0.0859796284    1.8538424930   -1.2472630236
H       -1.5376420277    0.7309194078   -1.1973151350
H        1.4631446716   -0.0987662485   -1.1518062547
H       -0.6258171777   -1.0602361178   -3.3706403309
H       -0.3925298065   -2.8082961392   -3.1839794410
H        1.0074078647   -1.7251337575   -3.2383109226
H       -5.5178690627   -1.9739766527    4.6114633314
H       -5.4619842873   -1.3349169476    2.9334842376
H       -4.8270371411   -0.3509695672    4.2719875673
H        0.5034960345   -2.4573836809   -0.8705856730
H       -1.1185060218   -1.8000668434   -1.0116238565
H        1.5200927122    0.5790016478    1.7103167744
H        0.5222069469    1.8770924018    1.6219367188
29   
torsion grid (-30,)
C       -0.5245025864   -1.3801408289    2.1703248987
C       -1.4332041055   -1.9789888711    3.0071731697
C       -0.9656757962   -0.3257323016    1.3317826415
C       -2.7535140263   -1.4753712475    2.9590650185
C       -0.4856452520    0.9603289209   -0.8710893756
C        0.3618212825   -0.2945752206   -0.9027097513
C        0.0114316248    0.3660315117    0.4219319242
C       -0.2396727198   -1.7855529518   -2.8545087035
C       -5.0042631770   -1.5366031893    3.7236480770
C       -0.2445418275   -1.6167558146   -1.3296352510
N       -2.2312102611    0.0859105972    1.3361562806
N       -3.1312204943   -0.4913020823    2.1547525416
N        1.1017404760    1.0859615440    1.0622133831
O       -3.6597555698   -2.0487127418    3.7825677631
H        0.5094029910   -1.7141218390    2.1317466470
H       -1.1844114503   -2.7993039420    3.6734627836
H       -0.0297927458    1.8959873356   -1.1774380642
H       -1.5457490225    0.8615143215   -1.0803668444
H        1.3996948635   -0.1462012068   -1.1950395301
H       -0.8108722264   -0.9839537993   -3.3349418828
H       -0.6826326753   -2.7427946582   -3.1500873605
H        0.7806385437   -1.7508930934   -3.2531800666
H       -5.5627905669   -2.1257230546    4.4516874273
H       -5.4225190976   -1.6622759188    2.7217316695
H       -5.0261593181   -0.4758407942    3.9859829220
H        0.3086435502   -2.4449210601   -0.8657117974
H       -1.2731540823   -1.6883772037   -0.9590381994
H        1.6611364362    0.4594130433    1.6399746183
H        0.7218414892    1.8043985028    1.6784614388
29   
torsion grid (-15,)
C       -0.4350696692   -1.1999185017    2.3793585120
C       -1.3581504624   -1.7891052073    3.2077370848
C       -0.8926741701   -0.3140499844    1.3714516121
C       -2.7111468976   -1.4496025981    2.9808742424
C       -0.4231816926    0.9773294743   -0.8331245197
C        0.3458006065   -0.3217429352   -0.9140819760
C        0.0886675470    0.3383217608    0.4365827880
C       -0.3998785010   -1.7510860367   -2.8595577209
C       -5.0086276560   -1.6674669831    3.5522423924
C       -0.3446311196   -1.6041383249   -1.3332737253
N       -2.1892896151   -0.0521422754    1.2163343778
N       -3.1035465476   -0.6220165688    2.0225738377
N        1.2511837717    0.9789289548    1.0282410793
O       -3.6323094498   -2.0145786050    3.7938289928
H        0.6243201142   -1.4181804893    2.4834086161
H       -1.0938310018   -2.4854753601    3.9976569734
H        0.0776792140    1.8891943142   -1.1406358635
H       -1.4942203070    0.9418276843   -0.9999408726
H        1.3806073198   -0.2281661212   -1.2390509712
H       -0.9453514225   -0.9147716791   -3.3097904710
H       -0.9019232141   -2.6800087029   -3.1510256922
H        0.6064633044   -1.7634926546   -3.2937300432
H       -5.5750852956   -2.2196165335    4.3027952591
H       -5.3112608749   -1.9633530551    2.5445053266
H       -5.1621824840   -0.5913629575    3.6663091544
H        0.1817476117   -2.4649088190   -0.8986531264
H       -1.3620691308   -1.6258122539   -0.9292006482
H        1.8412110224    0.3054782608    1.5138351070
H        0.9590546992    1.6794174715    1.7086567614
29   
torsion grid (0,)
C       -0.4173258652   -0.9943282974    2.5667848091
C       -1.3536810476   -1.5576415130    3.4000877250
C       -0.8611852473   -0.3196129704    1.4020755471
C       -2.7052701888   -1.4105845102    3.0198315595
C       -0.3942828224    0.9848899138   -0.7988830076
C        0.3013762220   -0.3468077313   -0.9335629735
C        0.1244562569    0.2919845118    0.4451815049
C       -0.5486048251   -1.6822631219   -2.8984887538
C       -5.0140040964   -1.7981643719    3.4349567990
C       -0.4555674438   -1.5847137376   -1.3697530855
N       -2.1604607074   -0.2260811947    1.1139140972
N       -3.0847462413   -0.7742364256    1.9199770288
N        1.3456238218    0.8519959528    0.9936709852
O       -3.6394812033   -1.9537397096    3.8334621804
H        0.6413736436   -1.0699534730    2.7955863239
H       -1.0961572066   -2.0944506024    4.3080026063
H        0.1438389174    1.8784142124   -1.0972440890
H       -1.4706956176    1.0030023374   -0.9294156635
H        1.3320804254   -0.2951149708   -1.2805579224
H       -1.0678575026   -0.8107269197   -3.3114768423
H       -1.0966175273   -2.5797601390   -3.2052207413
H        0.4464063861   -1.7243132947   -3.3565493948
H       -5.5920322063   -2.2985858392    4.2125109434
H       -5.1904471088   -2.2642681467    2.4621347080
H       -5.2824270776   -0.7403299726    3.3744681766
H        0.0441626958   -2.4788355990   -0.9729060609
H       -1.4632877664   -1.5725107788   -0.9444856251
H        1.9433693709    0.1326071576    1.3956196221
H        1.1369359994    1.5324267322    1.7228079443
29   
torsion grid (15,)
C       -0.4312817870   -0.8023006034    2.7117806825
C       -1.3823298921   -1.3206685336    3.5593716372
C       -0.8348432238   -0.3511933244    1.4306601336
C       -2.7056791634   -1.3620432223    3.0735228319
C       -0.3549137577    0.9686868092   -0.7567481506
C        0.2757905250   -0.3862556063   -0.9529156667
C        0.1614097070    0.2079271990    0.4534838614
C       -0.6351912557   -1.6006763735   -2.9640541542
C       -4.9997855334   -1.9029236688    3.3872331427
C       -0.5284406491   -1.5768089890   -1.4330145383
N       -2.1129233427   -0.4258153600    1.0486224560
N       -3.0479996889   -0.9327091990    1.8655694886
N        1.4250252642    0.6944894675    0.9736034318
O       -3.6540761807   -1.8658101584    3.8965844913
H        0.6067185160   -0.7411545682    3.0222023581
H       -1.1534746287   -1.6864116384    4.5557188091
H        0.2135891465    1.8495286510   -1.0364447178
H       -1.4331443455    1.0323095948   -0.8574680526
H        1.3029705088   -0.3603906678   -1.3126298397
H       -1.1308236374   -0.6959218444   -3.3324248302
H       -1.2135496780   -2.4658012128   -3.3060878815
H        0.3541849061   -1.6523345893   -3.4335238929
H       -5.5947782180   -2.3359978584    4.1919660880
H       -5.0571800408   -2.5224997463    2.4884949405
H       -5.3509670784   -0.8962757819    3.1461482236
H       -0.0521462283   -2.5024428082   -1.0825289408
H       -1.5297102645   -1.5503585741   -0.9963419860
H        1.9925253617   -0.0622197727    1.3504630574
H        1.2794220752    1.3814750328    1.7118427945
29   
torsion grid (30,)
C       -0.4660995625   -0.6143425838    2.7997431009
C       -1.4323628619   -1.0767083936    3.6634013732
C       -0.8153266285   -0.3900656293    1.4449592321
C       -2.7132271514   -1.3003263108    3.1195726689
C       -0.3073440603    0.9418549317   -0.7226940202
C        0.2573077568   -0.4321308148   -0.9832339014
C        0.1953515460    0.1059765737    0.4476024642
C       -0.6772023170   -1.5103441514   -3.0560220366
C       -4.9760404577   -1.9814784752    3.3843375168
C       -0.5837882832   -1.5697068540   -1.5248403843
N       -2.0563312532   -0.6313855825    1.0107982078
N       -3.0040369427   -1.0847477914    1.8426551206
N        1.4920142360    0.5219968106    0.9481169237
O       -3.6747984057   -1.7550632479    3.9560617449
H        0.5410123862   -0.4249680785    3.1554181330
H       -1.2432264069   -1.2697999931    4.7149853325
H        0.2905483090    1.8097322334   -0.9818556011
H       -1.3845606545    1.0526692805   -0.7957914856
H        1.2829418604   -0.4259020074   -1.3475426872
H       -1.1453496842   -0.5745424725   -3.3805624777
H       -1.2761675772   -2.3401612606   -3.4466878799
H        0.3140963562   -1.5647207611   -3.5214481682
H       -5.5899410091   -2.3392744654    4.2115588001
H       -4.9254955513   -2.7302730394    2.5895449114
H       -5.3852252120   -1.0552772722    2.9725493746
H       -0.1353077076   -2.5250331134   -1.2206545223
H       -1.5839129443   -1.5365231936   -1.0893764568
H        2.0040308226   -0.2595836897    1.3533701030
H        1.4007634786    1.2467967603    1.6582824247
29   
torsion grid (45,)
C       -1.0750669124    0.1891870231    2.7224903191
C       -1.7609234675   -0.5199405761    3.6814787282
C       -1.0565938122   -0.3039909289    1.3934921710
C       -2.3937365955   -1.7066185771    3.2601051707
C       -1.0373813509    0.5861415766   -1.0420567480
C        0.2161319488   -0.2493119949   -0.9581907221
C       -0.3267455172    0.4286559832    0.2999152431
C        0.4164615336   -1.9966356293   -2.7520010399
C       -3.7075872946   -3.6279914061    3.7460713422
C        0.2364183752   -1.7366847911   -1.2496322294
N       -1.6789626595   -1.4440061258    1.0816008856
N       -2.3491104516   -2.1434327479    2.0078534506
N        0.4460689192    1.5987650700    0.6758362036
O       -3.0700332204   -2.4172696882    4.1921306621
H       -0.5621418660    1.1079307381    2.9853205269
H       -1.8238757644   -0.2047153579    4.7185894420
H       -0.9894134847    1.5668850430   -1.5052379300
H       -1.9768297169    0.0505185375   -1.1415402750
H        1.1071681514    0.2737434929   -1.2997757760
H       -0.4099761970   -1.5607588219   -3.3245129324
H        0.4433450377   -3.0709058018   -2.9647961771
H        1.3483029561   -1.5577599799   -3.1282431687
H       -4.1875897078   -4.0387297030    4.6349337165
H       -2.9708382537   -4.3296964800    3.3464281398
H       -4.4486415150   -3.4134728551    2.9716633838
H        1.0629103677   -2.2004573074   -0.6948407300
H       -0.6800963289   -2.2045197639   -0.8904078629
H        1.1860415014    1.3587386058    1.3334780671
H       -0.1410812797    2.3133305155    1.1025009565
29   
torsion grid (60,)
C       -1.2637585991    0.2468133630    2.6750500425
C       -1.9932141176   -0.4384483387    3.6176260575
C       -1.0270491817   -0.3656669086    1.4173620691
C       -2.4486839229   -1.7225893041    3.2536740536
C       -0.9468771885    0.6253617837   -0.9823830849
C        0.2435013804   -0.3018232391   -0.9422751513
C       -0.2473827842    0.3524376000    0.3476265695
C        0.4010341129   -1.9294807605   -2.8451841195
C       -3.6173221034   -3.7230899750    3.7883356412
C        0.1564106281   -1.7634110767   -1.3387259228
N       -1.4902452971   -1.5891341454    1.1575649728
N       -2.2046985728   -2.2669037350    2.0691618796
N        0.6060775237    1.4499021601    0.7716738002
O       -3.1634838679   -2.4122127702    4.1722740863
H       -0.8811411020    1.2378241320    2.8947533025
H       -2.2189109604   -0.0355642382    4.6003178750
H       -0.8346216996    1.6214747206   -1.4004608422
H       -1.9219229827    0.1629418972   -1.1078879911
H        1.1687693318    0.1759502479   -1.2576284039
H       -0.3492124660   -1.3808278120   -3.4260939486
H        0.3478833104   -2.9837672013   -3.1380828749
H        1.3878185764   -1.5509363245   -3.1376616763
H       -4.1613865139   -4.0990424745    4.6554009998
H       -2.7704363303   -4.3727399131    3.5525918346
H       -4.2734184784   -3.6661184442    2.9159181472
H        0.9050721360   -2.3369875838   -0.7773927348
H       -0.8119192353   -2.1773544888   -1.0600393220
H        1.2727834625    1.1444552688    1.4787274905
H        0.0633651133    2.2198906949    1.1579350581
29   
torsion grid (75,)
C       -1.4690851779    0.3599382001    2.5506499419
C       -2.2181860828   -0.2942108450    3.4976837034
C       -1.0073736745   -0.3667046515    1.4215328481
C       -2.4683884925   -1.6645139415    3.2657184550
C       -0.8792525903    0.6797094051   -0.9621060620
C        0.2413641977   -0.3326494944   -0.9420317404
C       -0.1992228901    0.3300928594    0.3580044172
C        0.2656120077   -1.9104074040   -2.8917344100
C       -3.4508812759   -3.7207796666    3.9429125326
C        0.0265458202   -1.7692232522   -1.3819051375
N       -1.2910488659   -1.6597560510    1.2778659450
N       -2.0249217123   -2.3110576306    2.1974219893
N        0.7330814513    1.3521568426    0.8103842668
O       -3.1985398949   -2.3255877943    4.1925669370
H       -1.2427986095    1.4156911074    2.6630052707
H       -2.6115248584    0.1918484352    4.3853368814
H       -0.6976664464    1.6740812061   -1.3600764452
H       -1.8847786055    0.2922461900   -1.1031317146
H        1.1981274802    0.0780656456   -1.2576547623
H       -0.4226733015   -1.2736596053   -3.4596150970
H        0.1144291637   -2.9449661289   -3.2188708357
H        1.2868664079   -1.6198088390   -3.1658376058
H       -4.0447797913   -4.0571102606    4.7933542549
H       -2.5132251431   -4.2790519296    3.8814189339
H       -4.0036546203   -3.8532154449    3.0092777921
H        0.7082558962   -2.4286915973   -0.8322221562
H       -0.9791890930   -2.1018843568   -1.1242220141
H        1.3635741743    0.9760501725    1.5168375103
H        0.2482658063    2.1500958457    1.2162209698
29   
torsion grid (90,)
C       -1.6523781088    0.4064535278    2.3922521264
C       -2.4328562219   -0.2367614408    3.3198555379
C       -0.9593793653   -0.3693503788    1.4256458938
C       -2.4791242493   -1.6467564159    3.2291414404
C       -0.7242177489    0.7657211440   -0.9145939549
C        0.3172571582   -0.3293086029   -0.9052551572
C       -0.0992564994    0.3240153491    0.4021804430
C        0.1480450349   -1.8393597171   -2.9041654335
C       -3.2879028019   -3.7324507864    4.0338570868
C       -0.0245166003   -1.7285941849   -1.3829337415
N       -1.0664362702   -1.6950748885    1.3999530014
N       -1.8284697370   -2.3382346428    2.3052949331
N        0.8956871675    1.2512283337    0.9239530942
O       -3.2373617374   -2.2974575275    4.1401857645
H       -1.5771918275    1.4905146218    2.3858176649
H       -3.0000308807    0.2817393129    4.0868864326
H       -0.4583093543    1.7548079094   -1.2764982547
H       -1.7522427546    0.4616040275   -1.0950993761
H        1.3076082707    0.0070802429   -1.2052324992
H       -0.5045015664   -1.1306693982   -3.4272056546
H       -0.0978676580   -2.8472416505   -3.2561682033
H        1.1796788069   -1.6232712826   -3.2064665991
H       -3.9422025038   -4.0529084666    4.8451827440
H       -2.2904283555   -4.1643983419    4.1479675747
H       -3.6960044628   -4.0345474514    3.0659485967
H        0.6154565124   -2.4590143934   -0.8764376692
H       -1.0474324370   -1.9869940417   -1.1022949320
H        1.5082599340    0.7705737996    1.5818212761
H        0.4563431805    2.0226379316    1.4238585925
29   
torsion grid (105,)
C       -1.8452970642    0.4244902420    2.1603635716
C       -2.6541524270   -0.2093496856    3.0706876697
C       -0.9581777520   -0.3575221569    1.3770778559
C       -2.5286549822   -1.6156994764    3.1437481350
C       -0.6039698479    0.8457990654   -0.9131617474
C        0.3479930036   -0.3307187702   -0.9146044485
C       -0.0401429546    0.3205911598    0.3968062516
C       -0.0054227329   -1.7972976961   -2.9277862532
C       -3.1902087776   -3.6902616306    4.0992098638
C       -0.1188865927   -1.6894488722   -1.4010759578
N       -0.9079879077   -1.6821101262    1.4958003137
N       -1.6959622076   -2.3152024428    2.3854525591
N        1.0071427945    1.1487074141    0.9810858864
O       -3.3145816785   -2.2570058245    4.0375731386
H       -1.8874804785    1.5023661858    2.0242806194
H       -3.3657175329    0.3106749821    3.7048153956
H       -0.2494677529    1.8170538869   -1.2455379112
H       -1.6486196436    0.6312933681   -1.1259470525
H        1.3658643104   -0.0781241091   -1.2046677666
H       -0.6135901943   -1.0319333445   -3.4235377051
H       -0.3429607029   -2.7780334365   -3.2804584163
H        1.0305615267   -1.6621929120   -3.2602482708
H       -3.8987732053   -4.0022961854    4.8670707994
H       -2.1720991611   -3.9791029092    4.3722242352
H       -3.4401583781   -4.1420211680    3.1358755392
H        0.4716786197   -2.4757434789   -0.9198551670
H       -1.1534711785   -1.8647857878   -1.0935895541
H        1.5863800743    0.5786464323    1.5973736250
H        0.6025405243    1.8902678930    1.5524437810
29   
torsion grid (120,)
C       -2.0279483519    0.3903581161    1.9249380652
C       -2.8650310113   -0.2479240478    2.8086466133
C       -0.9706390181   -0.3479507276    1.3404954490
C       -2.5893896614   -1.6113675576    3.0553399060
C       -0.4896087840    0.9298811701   -0.8843007927
C        0.3608272337   -0.3236610756   -0.9112098984
C        0.0068540567    0.3173964376    0.4117910526
C       -0.1451343327   -1.7422474279   -2.9333146522
C       -3.1196201731   -3.6477867561    4.1633768447
C       -0.2278242039   -1.6303405980   -1.4052787784
N       -0.7808652380   -1.6380815345    1.6161890023
N       -1.5921010462   -2.2725101241    2.4803802037
N        1.1028724972    1.0301693693    1.0539330404
O       -3.4014722907   -2.2563300758    3.9227198341
H       -2.1697824497    1.4358370637    1.6629725276
H       -3.7028802633    0.2384196811    3.2988987816
H       -0.0454388172    1.8748444782   -1.1819957775
H       -1.5440579997    0.8136524441   -1.1244666369
H        1.3993222539   -0.1588383978   -1.1907814633
H       -0.6887920123   -0.9235419341   -3.4184586517
H       -0.5728120472   -2.6876313471   -3.2846298197
H        0.8945084465   -1.6982935136   -3.2780869562
H       -3.8777947579   -3.9697061242    4.8779254093
H       -2.1172500173   -3.7732966947    4.5805602607
H       -3.1922325206   -4.2232194105    3.2370153962
H        0.2957191218   -2.4682090062   -0.9330088562
H       -1.2724000842   -1.7130804289   -1.0873547141
H        1.6283872408    0.3779292992    1.6365007499
H        0.7374752573    1.7534759068    1.6738617617
29   
torsion grid (135,)
C       -2.1351905218    0.2847514267    1.7122433605
C       -2.9974404525   -0.3684036014    2.5628747716
C       -0.9364999652   -0.3644558124    1.3393942736
C       -2.5984539167   -1.6519458240    2.9932586560
C       -0.3483989513    0.9928421349   -0.8126164157
C        0.4047086189   -0.3207999731   -0.8864637622
C        0.0887431876    0.2937179323    0.4583865401
C       -0.2248282037   -1.6709054497   -2.9271667931
C       -3.0216356464   -3.6213622074    4.2582536195
C       -0.2870686619   -1.5681419764   -1.3979205323
N       -0.6295224501   -1.5834544705    1.7876502081
N       -1.4606032610   -2.2288056164    2.6203793690
N        1.2279193423    0.8869541613    1.1424784321
O       -3.4340701732   -2.3108389375    3.8273012770
H       -2.3606324704    1.2750211412    1.3260338243
H       -3.9400469534    0.0525606217    2.8992598497
H        0.1725596719    1.9096077855   -1.0700892122
H       -1.4044076205    0.9694852689   -1.0718192142
H        1.4541356412   -0.2324468632   -1.1592044908
H       -0.7048910383   -0.8061607818   -3.3991475465
H       -0.7286867563   -2.5754181606   -3.2849411505
H        0.8126310263   -1.7056807587   -3.2789524309
H       -3.8233982353   -3.9690900244    4.9104139002
H       -2.0754204532   -3.5701290320    4.8028902928
H       -2.9019277971   -4.2905504371    3.4024346471
H        0.1727411638   -2.4506724967   -0.9386858640
H       -1.3340079164   -1.5716537710   -1.0734710197
H        1.6918644445    0.1622398802    1.6910631749
H        0.9058418613    1.5950684233    1.8028869081
29   
torsion grid (150,)
C       -2.2134077396    0.1433534503    1.5065080505
C       -3.0923318114   -0.5214811380    2.3320933296
C       -0.9129909554   -0.3831749059    1.3457760396
C       -2.6062022088   -1.6893039411    2.9555769946
C       -0.2430274652    1.0438583953   -0.7441554528
C        0.4219487944   -0.3115061925   -0.8774399255
C        0.1450076794    0.2656281053    0.4954063437
C       -0.3026858721   -1.5608248050   -2.9537610436
C       -2.9519149877   -3.5509584921    4.3954065046
C       -0.3511516729   -1.4950906712   -1.4221070741
N       -0.5235945183   -1.4913564687    1.9813447257
N       -1.3684568395   -2.1460947738    2.7894281088
N        1.3220723191    0.7504173338    1.1977337247
O       -3.4579968043   -2.3606554843    3.7629300232
H       -2.5038982942    1.0543709504    0.9920448025
H       -4.1091217446   -0.1872092603    2.5144126591
H        0.3408208161    1.9327950820   -0.9596294597
H       -1.2941356571    1.1046270212   -1.0149000509
H        1.4754605039   -0.2844690154   -1.1471095371
H       -0.7270077669   -0.6537489713   -3.3986907078
H       -0.8662448006   -2.4202792777   -3.3328271954
H        0.7288014025   -1.6534145341   -3.3121864690
H       -3.7845007469   -3.9311089492    4.9881514507
H       -2.0975633920   -3.3163193694    5.0354450394
H       -2.6430956290   -4.2856878224    3.6474624763
H        0.0541561492   -2.4190683986   -0.9918532191
H       -1.3953614101   -1.4408573362   -1.0920013345
H        1.7248081230   -0.0290319636    1.7191728143
H        1.0440074222    1.4483123900    1.8884087294
29   
torsion grid (165,)
C       -2.2606762559   -0.0612699949    1.3068195374
C       -3.1469094291   -0.7286521798    2.1218394389
C       -0.8975494215   -0.4311764596    1.3475621186
C       -2.6090516958   -1.7423187610    2.9411706001
C       -0.1648650595    1.0683533046   -0.6838371249
C        0.4240670908   -0.3111211896   -0.8892835729
C        0.1806113042    0.2130384159    0.5170666782
C       -0.3675783072   -1.4046142747   -3.0279168423
C       -2.9063965664   -3.4448851266    4.5753860876
C       -0.4069171559   -1.4238875332   -1.4944224050
N       -0.4645325206   -1.3944406418    2.1654456996
N       -1.3167517174   -2.0521932673    2.9628230816
N        1.3881586045    0.6049360831    1.2231398984
O       -3.4674806495   -2.4142940559    3.7411748919
H       -2.5982258572    0.7390768121    0.6565518272
H       -4.2083254798   -0.5030745395    2.1570564628
H        0.4691710129    1.9328535190   -0.8509365294
H       -1.2077459057    1.2071747542   -0.9550865951
H        1.4790225756   -0.3286732992   -1.1536782720
H       -0.7513260528   -0.4550338850   -3.4173928200
H       -0.9716710618   -2.2142872533   -3.4514754572
H        0.6571824212   -1.5234302222   -3.3974169306
H       -3.7534872898   -3.8537396267    5.1270522134
H       -2.1643821540   -3.0274082818    5.2608021980
H       -2.4313099979   -4.2193728055    3.9678218247
H       -0.0412879565   -2.3896661168   -1.1233245825
H       -1.4465387997   -1.3430110411   -1.1562369232
H        1.7279446145   -0.2077801460    1.7383508526
H        1.1523874924    1.3068285758    1.9255986953
29   
torsion grid (180,)
C       -2.2829466047   -0.2878871244    1.1279020236
C       -3.1800990216   -0.9370663066    1.9435453382
C       -0.8992426669   -0.4916608062    1.3459258285
C       -2.6372962172   -1.7682649546    2.9455613898
C       -0.1251633805    1.0690561736   -0.6286468682
C        0.4063031039   -0.3174892130   -0.9128902424
C        0.1943756903    0.1420813770    0.5270181044
C       -0.4274980747   -1.2329859336   -3.1157560153
C       -2.9406470163   -3.2633737766    4.7697480511
C       -0.4548451327   -1.3654933360   -1.5872256836
N       -0.4677392922   -1.2841089978    2.3303980734
N       -1.3320966024   -1.9255473915    3.1298494543
N        1.4258102192    0.4595959164    1.2271371496
O       -3.5074041331   -2.4201969060    3.7497434245
H       -2.6336415077    0.3768761731    0.3459736951
H       -4.2559037393   -0.8273129210    1.8475897721
H        0.5436181236    1.9143591407   -0.7532850086
H       -1.1626103388    1.2705509855   -0.8791700492
H        1.4608798143   -0.3576206262   -1.1758591423
H       -0.7980069124   -0.2508599282   -3.4298715277
H       -1.0489101644   -1.9989038786   -3.5922907725
H        0.5919990074   -1.3406726335   -3.5025940605
H       -3.7976231299   -3.6879525552    5.2935723593
H       -2.3199919093   -2.6795302261    5.4543123766
H       -2.3302844114   -4.0532861668    4.3245030290
H       -0.1032557879   -2.3630624998   -1.2945561730
H       -1.4901419012   -1.2946900708   -1.2365393903
H        1.7165313310   -0.3713837634    1.7428124621
H        1.2270597944    1.1652321103    1.9375175441
