24   
torsion grid (-165,)
C       -2.2217975843    0.4818181041    2.6272423115
C       -2.2339923563   -1.5636041536   -0.1503404645
C       -0.9811681683    2.2027309025    3.8027238189
C       -0.0480432577    1.3621840161    1.7021825668
C       -3.5799450074   -3.0999788194   -1.4580279746
C       -4.6302714287   -2.0319753910    0.4781339605
N       -2.5889533300   -0.4910435947    1.8549544709
N       -1.7444945107   -0.8123478003    0.7844003063
N       -1.1941276190    1.3974983919    2.6071121728
N       -3.4802905456   -2.0812626237   -0.4210263133
H       -2.8956207524    0.6470569576    3.4680659519
H       -1.5116084142   -1.8192861549   -0.9256713420
H       -0.1871389824    1.7859029460    4.4412515329
H       -0.6890594355    3.2204772354    3.5195720457
H       -1.8993608069    2.2644687800    4.3911751296
H        0.2747618661    2.3912045098    1.5029696624
H        0.7958405624    0.8173501374    2.1515308475
H       -0.3207816368    0.8640652233    0.7772699644
H       -3.5874900722   -4.1161799850   -1.0347117288
H       -4.5063815214   -2.9631067796   -2.0274588059
H       -2.7400969474   -3.0226569563   -2.1522086644
H       -5.5454969533   -1.9868989864   -0.1244043996
H       -4.6786398814   -2.9301498713    1.1118916608
H       -4.5589173022   -1.1635936698    1.1252167353
24   
torsion grid (-150,)
C       -2.1513890852    0.3386312478    2.7154283386
C       -2.1560910120   -1.6921887060   -0.0341697288
C       -1.0675312915    2.2862652238    3.6710977125
C       -0.0714453132    1.2972992950    1.6682823631
C       -3.6273731412   -2.9319248141   -1.5107092078
C       -4.5891566067   -2.0007635944    0.5359927708
N       -2.4483690826   -0.7239094191    2.0391531731
N       -1.6209621141   -1.0662857191    0.9639698503
N       -1.2193991037    1.3434667757    2.5701979982
N       -3.4460756499   -2.0399915066   -0.3724467527
H       -2.8065115930    0.5092766446    3.5697396067
H       -1.4405926580   -1.9746946452   -0.8064316854
H       -0.2347466184    2.0103301643    4.3362744795
H       -0.8683828506    3.2892199185    3.2766297451
H       -1.9831037288    2.3316207297    4.2650104873
H        0.1688867131    2.3187892941    1.3500295593
H        0.8119086611    0.8758644424    2.1712696145
H       -0.2995266614    0.6764068610    0.8072665073
H       -3.7380952848   -3.9813349534   -1.1966791281
H       -4.5283548539   -2.6472959058   -2.0660371252
H       -2.7749382949   -2.8631635945   -2.1901835252
H       -5.4965766452   -1.8025876913   -0.0468861017
H       -4.7162611645   -2.9621665256    1.0560543617
H       -4.4435160002   -1.2275170763    1.2841815436
24   
torsion grid (-135,)
C       -2.2038559854    0.7895330376    2.6250880421
C       -2.4886998616    0.0548301821   -0.6460514703
C        0.1388736306    1.3802446075    1.9457532018
C       -0.7707828993    2.0609863089    4.1091761039
C       -4.9186022943    0.4949686938   -0.1917232332
C       -4.0500001980    0.3531508238   -2.4724789119
N       -2.6969869471    0.0914882116    1.6559051756
N       -1.9248459659   -0.0933845550    0.5071581896
N       -1.0518031714    1.5364001856    2.7778310254
N       -3.7388738931    0.4780814268   -1.0533585185
H       -2.8526280672    0.8457522780    3.4991791081
H       -1.8272172053   -0.1517574527   -1.4874293394
H        0.6894470459    2.3279855458    1.9346510059
H        0.8035585545    0.5985946076    2.3440819511
H       -0.1453606998    1.0993870095    0.9356098334
H       -0.1450343529    1.3753822889    4.7019064769
H       -0.2406742533    3.0157990205    4.0235805256
H       -1.7009448372    2.2398441200    4.6533489083
H       -5.6106387424    1.2638459153   -0.5542573624
H       -5.4387913728   -0.4748317150   -0.2095945841
H       -4.6291721975    0.7041319501    0.8341985308
H       -4.5388873148   -0.6053712888   -2.7072727330
H       -4.7256949361    1.1612923738   -2.7731056686
H       -3.1401250200    0.4344409377   -3.0715398926
24   
torsion grid (-120,)
C       -2.2052203281    0.6559229392    2.6177837287
C       -2.4664558710   -0.0676599994   -0.5824491160
C        0.1092469737    1.2729249900    1.8965911523
C       -0.8903769155    2.2221163527    3.9123646662
C       -4.8734346282    0.4187379274   -0.1050457182
C       -3.9635914950    0.6000823785   -2.3637982176
N       -2.6568508516   -0.1568707589    1.7226874235
N       -1.9238990170   -0.3529469871    0.5533878061
N       -1.1139534379    1.5057649967    2.6617579675
N       -3.6753297160    0.5047219976   -0.9374269684
H       -2.8316552011    0.7252886764    3.5073010764
H       -1.8285690226   -0.2770400658   -1.4413874598
H        0.6148160507    2.2311299821    1.7318991956
H        0.7970841345    0.6082528451    2.4419160438
H       -0.1282145253    0.8081622474    0.9432055601
H       -0.2524710644    1.6558694879    4.6095899092
H       -0.3985554155    3.1780280661    3.7027751835
H       -1.8417097914    2.4354932550    4.4050730591
H       -5.5237736862    1.2728924689   -0.3253743504
H       -5.4342980055   -0.5055207950   -0.3136099868
H       -4.5991798082    0.4208834618    0.9467275701
H       -4.4864649925   -0.2918007811   -2.7443366384
H       -4.6000159056    1.4717640299   -2.5506166268
H       -3.0398278541    0.7316441646   -2.9318081122
24   
torsion grid (-105,)
C       -2.2154121662    0.5188396120    2.6018888430
C       -2.4349192009   -0.1777113357   -0.5148727052
C        0.0661201024    1.1723963144    1.8450018371
C       -1.0382060183    2.3302960192    3.6876558524
C       -4.8151944840    0.3631235478   -0.0169602207
C       -3.8454838866    0.8122862643   -2.2109523382
N       -2.6151819496   -0.3941255493    1.7840409354
N       -1.9244407402   -0.5958572593    0.5927285555
N       -1.1934799282    1.4539631499    2.5318624686
N       -3.5932479748    0.5287783668   -0.8024360895
H       -2.8166664430    0.6000651554    3.5080739248
H       -1.8233056192   -0.3843625992   -1.3937835528
H        0.5258079461    2.1175811743    1.5354303759
H        0.7695520962    0.6466738639    2.5095512386
H       -0.1125501846    0.5479229318    0.9729458036
H       -0.4034292528    1.8847669181    4.4705860636
H       -0.5759005351    3.2709264799    3.3705771038
H       -2.0133370736    2.5665781047    4.1198968140
H       -5.4277939978    1.2667414564   -0.1103539297
H       -5.4046567596   -0.4936509470   -0.3793105222
H       -4.5699344390    0.1920785373    1.0284774512
H       -4.3758750884   -0.0106449990   -2.7167900973
H       -4.4601210435    1.7145963914   -2.2953081207
H       -2.9056644162    0.9981712458   -2.7360436965
24   
torsion grid (-90,)
C       -2.3552048590    0.4536746168    2.7249886473
C       -1.9967187343    0.3512712912   -0.3562776514
C       -1.2735446583    2.0808180686    4.1457793124
C        0.0695454075    0.9232598926    2.4704895971
C       -2.7647304890    2.0859621431   -1.8523886109
C       -4.2908883825    1.2745902463   -0.1310994908
N       -2.6684525248   -0.3330005261    1.7538838398
N       -1.8301387648   -0.4358391841    0.6500695939
N       -1.2719785574    1.3032291690    2.9116909947
N       -2.9045287060    1.3775664593   -0.5850683290
H       -3.0835679317    0.4789257487    3.5368206037
H       -1.2798313361    0.2051886138   -1.1655715090
H       -0.8614309719    1.5186056522    4.9997277523
H       -0.6659242692    2.9810053486    4.0072684917
H       -2.2891411274    2.3991233958    4.3925810698
H        0.6658945646    1.8275376892    2.3061917314
H        0.5756236616    0.3083464855    3.2313155790
H        0.0166596523    0.3519333162    1.5466636863
H       -3.2778827193    1.5725161744   -2.6819527311
H       -3.1945466642    3.0883316071   -1.7561576634
H       -1.7089311178    2.1994831749   -2.1094359119
H       -4.7046000427    2.2805444466    0.0006704085
H       -4.9087107045    0.7402852985   -0.8699223730
H       -4.3411908119    0.7364168788    0.8125470331
24   
torsion grid (-75,)
C       -2.3909029029    0.2606746639    2.6882392442
C       -1.9955175224    0.1576794552   -0.3099636205
C       -1.4252325836    2.0881058028    3.9421181209
C       -0.0247448837    0.9185523464    2.3244036533
C       -2.6094193023    2.0762861976   -1.6461626375
C       -4.1971306483    1.2577855813    0.0143857356
N       -2.6614368734   -0.6159160888    1.7831437133
N       -1.8886307328   -0.7136231600    0.6335156778
N       -1.3832007653    1.2124468375    2.7771614624
N       -2.8093345116    1.2752354869   -0.4444676023
H       -3.0855427626    0.2686998686    3.5299106622
H       -1.3148819418   -0.0000712292   -1.1483284564
H       -0.9395769895    1.6402482932    4.8245994871
H       -0.9090521905    3.0254405584    3.7098632646
H       -2.4594188977    2.3318042248    4.1964070329
H        0.4636141236    1.8454386365    2.0030908092
H        0.5716458105    0.4779083646    3.1385961513
H       -0.0420137793    0.2170979115    1.4941318974
H       -3.1725888074    1.6882341971   -2.5107279780
H       -2.9420256751    3.1022988550   -1.4573570262
H       -1.5488098869    2.1126717870   -1.9057551997
H       -4.5044463216    2.2722068705    0.2924974815
H       -4.8676107281    0.8997180918   -0.7824885228
H       -4.3069607371    0.6023884533    0.8746842910
24   
torsion grid (-60,)
C       -2.4034941334    0.1292440277    2.6689749745
C       -2.0062925704    0.0274034076   -0.2854967632
C       -1.5873301066    2.1190740533    3.7822467971
C       -0.1574993408    1.0441729606    2.1225204317
C       -2.4441659242    2.0834665093   -1.4878079392
C       -4.0413655822    1.3657799811    0.2117346249
N       -2.6283572582   -0.8142379785    1.8181654469
N       -1.9568848093   -0.9036147634    0.6063194708
N       -1.5062270216    1.1871478939    2.6648119432
N       -2.6917770694    1.2325261591   -0.3309302721
H       -3.0422821182    0.0963119426    3.5535431268
H       -1.3882035365   -0.1617238404   -1.1651463486
H       -0.9940931669    1.7886539333    4.6503804861
H       -1.2106914768    3.0978730919    3.4667805655
H       -2.6262974335    2.2468957465    4.0946849142
H        0.1460059766    1.9701334485    1.6205615630
H        0.5606149525    0.8368848432    2.9304739317
H       -0.1140006101    0.2240203768    1.4113460274
H       -3.0913937994    1.8304209231   -2.3432767628
H       -2.6324975769    3.1278464623   -1.2172368325
H       -1.4006098631    2.0034982003   -1.8008704707
H       -4.1657412893    2.3527473537    0.6720671379
H       -4.7888043839    1.2606426044   -0.5893356601
H       -4.2332958928    0.5993884963    0.9574684528
24   
torsion grid (-45,)
C       -2.3955689567    0.0801048886    2.6633849753
C       -2.0220624138   -0.0180804914   -0.2763909528
C       -1.7053958562    2.1529793289    3.7019303888
C       -0.2547323936    1.1489151812    2.0182217676
C       -2.3215349451    2.0987590228   -1.4082577379
C       -3.9251107076    1.4556604638    0.3129313710
N       -2.5702436914   -0.9086198073    1.8493169490
N       -2.0277383336   -0.9862681067    0.5799157960
N       -1.5952073213    1.2112032177    2.5943071144
N       -2.5987312747    1.2437437338   -0.2601972635
H       -2.9726659946    0.0032370313    3.5873744154
H       -1.4743884090   -0.2405574373   -1.1946712882
H       -1.0718954508    1.8723654670    4.5590167959
H       -1.3975669006    3.1474986182    3.3628870291
H       -2.7424001503    2.2211416313    4.0385769087
H       -0.0112122792    2.1012498487    1.5351117466
H        0.4926691280    0.9541011747    2.8026939628
H       -0.1856666641    0.3514034932    1.2837080558
H       -3.0002643469    1.9026413852   -2.2541598553
H       -2.4381286967    3.1471537380   -1.1148912003
H       -1.2915252143    1.9586314432   -1.7441235497
H       -3.9864491551    2.4571641753    0.7520943849
H       -4.6991627196    1.3673678283   -0.4648912606
H       -4.1368194650    0.7181964073    1.0821438156
24   
torsion grid (-30,)
C       -2.3698989909    0.0208392587    2.6658708208
C       -2.0580754389   -0.0720618281   -0.2772325076
C       -1.7729580351    2.1509627690    3.6411075174
C       -0.3096688823    1.1715622561    1.9511898710
C       -2.2552222318    2.0870152444   -1.3471666068
C       -3.8665073047    1.4706610075    0.3786486459
N       -2.5040668438   -0.9967729771    1.8758220480
N       -2.1124571534   -1.0618730380    0.5564756950
N       -1.6440454962    1.1981558343    2.5448019470
N       -2.5531687298    1.2231696578   -0.2107582470
H       -2.8734225015   -0.0947159912    3.6289986567
H       -1.5873192828   -0.3201335805   -1.2318827914
H       -1.1117572783    1.9107847669    4.4895558184
H       -1.5154842915    3.1525537834    3.2817642024
H       -2.8055490862    2.1786579500    3.9966181802
H       -0.1019167801    2.1247851813    1.4543588958
H        0.4534504914    1.0050298470    2.7271358526
H       -0.2266161715    0.3694323875    1.2222250199
H       -2.9524250824    1.9355140550   -2.1871999935
H       -2.3228579821    3.1336154687   -1.0331179372
H       -1.2364488306    1.9087849362   -1.6989132224
H       -3.8920667198    2.4674991629    0.8306171701
H       -4.6510679942    1.4128834316   -0.3916243368
H       -4.0928806452    0.7318097636    1.1431616053
24   
torsion grid (-15,)
C       -2.3360631845   -0.0181965977    2.6767318097
C       -2.0986794500   -0.1050131401   -0.2864613907
C       -1.8246971766    2.1499809155    3.6141750571
C       -0.3480444554    1.2031055268    1.9154610523
C       -2.2037728711    2.0774446999   -1.3193880951
C       -3.8229476611    1.4951470103    0.4131540681
N       -2.4280578726   -1.0491914317    1.8937650890
N       -2.1959854552   -1.1003574872    0.5407283170
N       -1.6770810186    1.1950131695    2.5220820882
N       -2.5208086634    1.2148763779   -0.1871483750
H       -2.7649359161   -0.1721100851    3.6713074357
H       -1.7098548753   -0.3785996734   -1.2717349350
H       -1.1495856250    1.9343416057    4.4583338069
H       -1.6006074837    3.1566643736    3.2471770650
H       -2.8547469604    2.1481726657    3.9782128696
H       -0.1642773631    2.1665512911    1.4298610977
H        0.4262043382    1.0381490888    2.6811074917
H       -0.2580986009    0.4139593735    1.1724506246
H       -2.9107301664    1.9537237847   -2.1559124493
H       -2.2362285211    3.1232487242   -0.9975988971
H       -1.1933927306    1.8692266445   -1.6789804951
H       -3.8232796087    2.4961636878    0.8556160457
H       -4.6174603855    1.4431671449   -0.3477211723
H       -4.0543540546    0.7693687740    1.1894253574
24   
torsion grid (0,)
C       -2.2870952680   -0.0659809353    2.6964595193
C       -2.1573793857   -0.1437540333   -0.3053044100
C       -1.8728320291    2.1283649180    3.6197411033
C       -0.3860637546    1.2444570357    1.8940781278
C       -2.1617388607    2.0473847822   -1.3243022423
C       -3.7791748109    1.5298034506    0.4323570451
N       -2.3460904737   -1.0934879002    1.9034740901
N       -2.2868098458   -1.1290029893    0.5317129403
N       -1.7057199245    1.1852148683    2.5202484306
N       -2.4961564742    1.1998984539   -0.1857645004
H       -2.6255735702   -0.2659067533    3.7187683535
H       -1.8658079131   -0.4470032508   -1.3165809798
H       -1.1793127782    1.9322297509    4.4538540343
H       -1.6900154098    3.1446016261    3.2564130024
H       -2.8973349169    2.0869897821    3.9970603242
H       -0.2456936117    2.2133551415    1.4054050261
H        0.4050635994    1.1073995844    2.6485727058
H       -0.2796304171    0.4595893780    1.1482771740
H       -2.8836213114    1.9480669688   -2.1514589503
H       -2.1505505029    3.0945499927   -1.0057163698
H       -1.1646389644    1.7999121792   -1.6960881231
H       -3.7352444637    2.5279704779    0.8784672872
H       -4.5852061869    1.5097019496   -0.3185297138
H       -4.0261933174    0.8110374759    1.2107591142
24   
torsion grid (15,)
C       -2.7805556583    0.6283500902    2.0408268826
C       -1.7950032501   -1.5681760136    0.2951002677
C       -0.3290505938    0.6314733440    1.9188677011
C       -1.4764548316    0.9053185266    4.0569351980
C       -2.5041286229   -2.4298244460    2.4812573836
C       -0.4115874610   -3.1695592391    1.4629760116
N       -3.1845346376    0.3064492480    0.8501696886
N       -2.6424986119   -0.6295446322    0.0032269475
N       -1.5614430923    0.4368040614    2.6787183322
N       -1.4502675548   -2.1472249052    1.5098799995
H       -3.4869653742    1.2484363003    2.6005605631
H       -1.3522842633   -2.0583181993   -0.5770109802
H       -0.0208880623    1.6884011508    1.9482128671
H        0.4725938710    0.0185998855    2.3426381570
H       -0.4696037909    0.3522857784    0.8771386858
H       -0.6541495321    0.3905101722    4.5640123091
H       -1.2951965751    1.9904571979    4.1240066211
H       -2.3994080815    0.6691876600    4.5916516471
H       -2.9467992276   -3.4204693555    2.2926125760
H       -2.0922659595   -2.4149785378    3.4951490404
H       -3.2984790077   -1.6898493457    2.4153231920
H        0.0335639638   -3.2789505607    2.4570676945
H       -0.8000647181   -4.1527129086    1.1509353018
H        0.3803683046   -2.8691838947    0.7729774277
24   
torsion grid (30,)
C       -2.7808074933    0.5890493839    2.0782751986
C       -1.7467845916   -1.5529328006    0.3146242552
C       -0.3226142322    0.6877030365    1.9035291367
C       -1.4398079023    0.9516213913    4.0571565539
C       -2.5399704722   -2.4711918996    2.4618137295
C       -0.4380184772   -3.2219249112    1.4755455331
N       -3.2089862829    0.2354736878    0.9080313667
N       -2.5581373635   -0.5884021930    0.0160452488
N       -1.5376265109    0.4703651480    2.6842866824
N       -1.4632919535   -2.1860185371    1.5170629260
H       -3.5168624622    1.1330914234    2.6755984399
H       -1.2351597479   -1.9869691804   -0.5481592310
H       -0.0269144218    1.7476748728    1.9387054468
H        0.4952154680    0.0823118626    2.3076489976
H       -0.4785267873    0.4181050868    0.8620588394
H       -0.5936017529    0.4638249953    4.5516935637
H       -1.2873172406    2.0417538090    4.1129463736
H       -2.3449061141    0.6941773777    4.6120859323
H       -2.9754698481   -3.4623509041    2.2614095655
H       -2.1523517932   -2.4594288655    3.4856675339
H       -3.3339461956   -1.7335044650    2.3777244913
H       -0.0197974406   -3.3569362308    2.4782637069
H       -0.8322188612   -4.1932298884    1.1350636732
H        0.3756397023   -2.9203416694    0.8118992353
24   
torsion grid (45,)
C       -2.7647726712    0.5483592206    2.1397026542
C       -1.6814719949   -1.5516032478    0.3511706803
C       -0.3065671987    0.7674858217    1.9119264881
C       -1.3968593785    1.0225486905    4.0794179862
C       -2.5681185860   -2.5497934199    2.4395593714
C       -0.4533773945   -3.3025742187    1.4843196688
N       -3.2046973741    0.1459788865    0.9928298625
N       -2.4526446512   -0.5541361187    0.0661310016
N       -1.5023712213    0.5239522284    2.7136128972
N       -1.4672046829   -2.2559579221    1.5265409632
H       -3.5265429404    1.0125246557    2.7697522145
H       -1.1026457333   -1.9227076888   -0.4973402894
H       -0.0249795344    1.8307732791    1.9557051487
H        0.5288923234    0.1708181198    2.2938872424
H       -0.4798495038    0.5087979059    0.8709637597
H       -0.5279936112    0.5664582694    4.5652853202
H       -1.2762842327    2.1172619120    4.1206876691
H       -2.2840810976    0.7447070211    4.6529686092
H       -2.9914208294   -3.5427347849    2.2235263585
H       -2.2091067999   -2.5428838418    3.4744412125
H       -3.3629370998   -1.8163796904    2.3354447792
H       -0.0619919182   -3.4684138581    2.4934405061
H       -0.8507921838   -4.2599639642    1.1100201031
H        0.3806423434   -2.9956996964    0.8490615236
24   
torsion grid (60,)
C       -2.7516166867    0.5409903472    2.1716334618
C       -1.6516153574   -1.5652513681    0.3682890720
C       -0.3212211407    0.9458755777    1.8427754615
C       -1.3509961758    1.1727746775    4.0434746642
C       -2.6906116407   -2.6551865447    2.3461844824
C       -0.5542305346   -3.4295458720    1.4567911438
N       -3.1951420609    0.0674306144    1.0564287664
N       -2.3654759038   -0.5215316537    0.1118921395
N       -1.4696019258    0.6403986781    2.6921677245
N       -1.5360969436   -2.3537649636    1.5036929804
H       -3.5279393805    0.9283303872    2.8341419762
H       -1.0124872558   -1.8844909671   -0.4570703996
H       -0.0912569185    2.0215498056    1.8811564777
H        0.5597022935    0.3923994035    2.1879761358
H       -0.5255355341    0.6792634904    0.8095707105
H       -0.4363193948    0.7875514180    4.5064965793
H       -1.3043908810    2.2738413031    4.0601025395
H       -2.1960785991    0.8475291311    4.6545911494
H       -3.1139712391   -3.6356603434    2.0799839911
H       -2.3899434544   -2.6840241992    3.3998865445
H       -3.4659799175   -1.9049612252    2.2186613139
H       -0.2195646214   -3.6602373873    2.4737442424
H       -0.9616028632   -4.3528896118    1.0137798837
H        0.3205667235   -3.1195315746    0.8805710613
24   
torsion grid (75,)
C       -2.6747516444    0.5184803266    2.2796242520
C       -1.5654206289   -1.6228367390    0.4530086183
C       -0.3398016007    1.2181034773    1.8087415610
C       -1.2816865828    1.3902733009    4.0522524755
C       -2.8174946815   -2.8551944015    2.2071294839
C       -0.6444615670   -3.6364499670    1.4235325634
N       -3.1036889780   -0.0432193166    1.2019779745
N       -2.2153954540   -0.5285313645    0.2509493311
N       -1.3882188158    0.7843475146    2.7304528729
N       -1.5748791487   -2.5177026681    1.5152066856
H       -3.4610042794    0.8282172224    2.9702194278
H       -0.8712210275   -1.8886020121   -0.3460559982
H       -0.3358580120    2.3148987815    1.7097196708
H        0.6379189235    0.9037792527    2.1909712913
H       -0.4943566278    0.7858081449    0.8233705475
H       -0.3017501464    1.1554390064    4.4806774617
H       -1.3880696783    2.4871220820    4.0236767295
H       -2.0435751112    0.9809293382    4.7197615768
H       -3.3161086751   -3.7083301018    1.7209928424
H       -2.5966238951   -3.1313077031    3.2443400473
H       -3.5006083893   -2.0095822822    2.1998922671
H       -0.4125904805   -3.9985351551    2.4305642784
H       -1.0538370142   -4.4795688034    0.8432071812
H        0.2918374255   -3.3142731837    0.9618708436
24   
torsion grid (90,)
C       -2.5573892911    0.5064327301    2.4315769682
C       -1.4545616056   -1.7222149594    0.5731762786
C       -0.3034902442    1.3769528113    1.8570506659
C       -1.2272496512    1.6407978582    4.0994925138
C       -2.8438281855   -3.0192562702    2.1718226556
C       -0.7086153235   -3.8797822305    1.3645298797
N       -2.9533977575   -0.1608946476    1.4030564570
N       -2.0303570502   -0.5761276089    0.4509118259
N       -1.2939335840    0.9222927009    2.8319605531
N       -1.5596149497   -2.7090894390    1.5451086656
H       -3.3527786446    0.7717691619    3.1295314208
H       -0.7340757118   -1.9503230156   -0.2136235677
H       -0.4389147056    2.4454209079    1.6265288086
H        0.7017140238    1.2385379146    2.2703469364
H       -0.3953737312    0.8119877477    0.9323450342
H       -0.2230808509    1.5356468173    4.5230180069
H       -1.4394442090    2.7165815569    3.9865892222
H       -1.9363433387    1.2164820938    4.8142134257
H       -3.4149384385   -3.7393690580    1.5648860391
H       -2.6678848847   -3.4631954182    3.1579120904
H       -3.4389832225   -2.1158327566    2.2827919509
H       -0.5356262500   -4.3550306142    2.3356117236
H       -1.1584716531   -4.6291016715    0.6927907672
H        0.2625715222   -3.5845044939    0.9604365072
24   
torsion grid (105,)
C       -2.4873581261    0.5135003266    2.5446054649
C       -1.3706201718   -1.8039198366    0.6393652459
C       -0.2773307776    1.4816473666    1.9245680213
C       -1.2917861151    1.9279874580    4.0989433445
C       -2.8269744766   -3.1435759053    2.1525712030
C       -0.7979140106   -4.0896551214    1.1810193226
N       -2.8246426980   -0.2597624225    1.5696618776
N       -1.8733133798   -0.6168637559    0.6186817894
N       -1.2753914180    1.0778544740    2.9136738982
N       -1.5466458235   -2.8785927404    1.4982822072
H       -3.2999417791    0.7400969164    3.2357129737
H       -0.6373802527   -1.9914377434   -0.1457925574
H       -0.4841110764    2.4947508877    1.5454934423
H        0.7128347115    1.4849316096    2.3937006972
H       -0.2825331913    0.7935748455    1.0826025928
H       -0.2984357716    1.9277390414    4.5597190243
H       -1.5590560694    2.9710317478    3.8643343251
H       -2.0011712962    1.5417699116    4.8345708685
H       -3.4929067507   -3.7259063923    1.4966258843
H       -2.6508089199   -3.7225616542    3.0659429298
H       -3.3232038361   -2.2083505381    2.4005356403
H       -0.6296407514   -4.6632333697    2.0984745743
H       -1.3301454115   -4.7376655974    0.4660125354
H        0.1786279746   -3.8347724688    0.7627543300
24   
torsion grid (120,)
C       -2.4171530234    0.5209090696    2.6530097724
C       -1.2938795936   -1.8835328156    0.7059304837
C       -0.2276261722    1.5442484718    2.0088828836
C       -1.3856733625    2.2033540910    4.0547810069
C       -2.7876927101   -3.2505331399    2.1742212935
C       -0.9166012273   -4.2594544441    0.9725467860
N       -2.6876506409   -0.3540693661    1.7436165965
N       -1.7166524921   -0.6672894742    0.7940347761
N       -1.2705244041    1.2231294634    2.9809752706
N       -1.5422781380   -3.0286459738    1.4424372594
H       -3.2446984328    0.7198306843    3.3342406399
H       -0.5547818870   -2.0380905797   -0.0804087531
H       -0.4623226624    2.4746242034    1.4688732281
H        0.7222293348    1.6832849103    2.5374337586
H       -0.1347165929    0.7425554437    1.2808342532
H       -0.4229163303    2.2974142172    4.5684644987
H       -1.6720716372    3.1995686131    3.6816935429
H       -2.1270069663    1.8796373096    4.7889180860
H       -3.5596790827   -3.6844909213    1.5200005354
H       -2.5989684055   -3.9510927703    2.9955127537
H       -3.1642053277   -2.3094717046    2.5666705565
H       -0.7276371791   -4.9215302254    1.8243426116
H       -1.5505407467   -4.8016984018    0.2529967816
H        0.0428388567   -4.0424029560    0.4974658372
24   
torsion grid (135,)
C       -2.3362434496    0.5111974301    2.7701139942
C       -1.2017751330   -1.9592348379    0.7873621368
C       -0.1669581944    1.5885616306    2.1095866081
C       -1.4983854843    2.4386853675    3.9744557521
C       -2.7251168902   -3.3546825921    2.2131173566
C       -1.0449564169   -4.3761877255    0.7618459940
N       -2.5306906638   -0.4565767015    1.9361250690
N       -1.5416870417   -0.7287949265    0.9883051855
N       -1.2680336858    1.3445379553    3.0384028287
N       -1.5317257688   -3.1554844443    1.3939867200
H       -3.1755646555    0.6843173288    3.4436887107
H       -0.4580225780   -2.0853613802    0.0005561771
H       -0.4034231899    2.4135493339    1.4204152397
H        0.7255665017    1.8641220028    2.6831436706
H        0.0265915948    0.6984231084    1.5177883021
H       -0.5771735801    2.6480836836    4.5290793665
H       -1.8064137250    3.3641437447    3.4630490653
H       -2.2718800584    2.1672338692    4.6964595076
H       -3.5913874385   -3.6321631380    1.5933944615
H       -2.5350981453   -4.1676969347    2.9232702749
H       -2.9695194740   -2.4399741049    2.7456778621
H       -0.8547365713   -5.1359089398    1.5277738370
H       -1.7707537122   -4.7896922821    0.0441007924
H       -0.1066119139   -4.1859028099    0.2359287220
24   
torsion grid (150,)
C       -2.4702338490    0.6832080777    2.4569894396
C       -2.2599970289   -1.2671402402   -0.3421129144
C       -1.1230991651    1.9352544705    4.0379435032
C       -0.0256189448    1.0971843199    2.0194604356
C       -3.2200865523   -3.2246436579   -1.4037388004
C       -4.3519047615   -2.3300922378    0.5711413375
N       -2.9305986360    0.0666019420    1.4166928911
N       -2.0380891221   -0.2140168474    0.3763238619
N       -1.2129150909    1.0684231735    2.8697427493
N       -3.1585336020   -2.3098198697   -0.2708660848
H       -3.2336430286    0.9171660495    3.1990175109
H       -1.5571810714   -1.3889512221   -1.1663447994
H       -0.2396777335    1.6704513811    4.6300341920
H       -1.0391528768    2.9963935778    3.7567084399
H       -2.0042458099    1.8149967825    4.6721291324
H        0.0883643115    2.0757059440    1.5291459918
H        0.8589696951    0.9197067930    2.6426724291
H       -0.1026417613    0.3381766653    1.2468818279
H       -3.4017854250   -4.2451345625   -1.0477652859
H       -4.0278791539   -2.9588962465   -2.1030267765
H       -2.2746890466   -3.2201710284   -1.9507940011
H       -5.2224524456   -1.9213354381    0.0363702166
H       -4.5730051048   -3.3686597212    0.8447931140
H       -4.1893014309   -1.7305416309    1.4616345864
24   
torsion grid (165,)
C       -2.3923347192    0.5549761505    2.5694297680
C       -2.1840817607   -1.4191537243   -0.2516760010
C       -1.1711216089    2.0918793338    3.9943240864
C        0.0078224029    1.1422278430    2.0716435326
C       -3.3035998149   -3.1478497875   -1.5334401778
C       -4.3756657738   -2.3877780553    0.5309688761
N       -2.8041998940   -0.1877690792    1.5915112049
N       -1.8922200036   -0.4547514840    0.5621688426
N       -1.1811004550    1.1077980137    2.9196722052
N       -3.1810871326   -2.3667215991   -0.3094411396
H       -3.1634763110    0.7640917874    3.3109843575
H       -1.4600957353   -1.5423088341   -1.0572649294
H       -0.2732569270    1.9633713988    4.6097291353
H       -1.1732361481    3.1220381827    3.6061578452
H       -2.0446189008    1.9647506638    4.6376780923
H        0.0403041967    2.0629727471    1.4700378900
H        0.8972451906    1.1190279621    2.7127296846
H        0.0060798161    0.2936686169    1.3949365422
H       -3.5677306989   -4.1835494797   -1.2905730410
H       -4.0819709683   -2.7452372044   -2.1997053343
H       -2.3564843981   -3.1576269387   -2.0774532333
H       -5.2054617498   -1.8429495713    0.0563377665
H       -4.6858373880   -3.4298688050    0.6740242339
H       -4.1652706282   -1.9202723600    1.4875870706
24   
torsion grid (180,)
C       -2.2987702172    0.4144147809    2.6840641550
C       -2.1143116189   -1.5807673638   -0.1411893340
C       -1.1912943508    2.1464486594    3.9795469742
C       -0.0358290512    1.2996361160    1.9966273490
C       -3.3267831169   -3.1158880618   -1.5819794652
C       -4.4716580024   -2.2938987383    0.4178986703
N       -2.6623770922   -0.4476512145    1.7864864743
N       -1.7508438721   -0.7187139307    0.7564728197
N       -1.1641787858    1.1554776216    2.9128698881
N       -3.2229907055   -2.3691368424   -0.3361280061
H       -3.0497443814    0.5747501331    3.4577624862
H       -1.3595510901   -1.7475315897   -0.9098477788
H       -0.2573491157    2.1071664914    4.5531034287
H       -1.3023205879    3.1666411312    3.5818640707
H       -2.0188034331    1.9514462309    4.6649445509
H       -0.0881365928    2.2631247808    1.4669596626
H        0.8988968605    1.2782812812    2.5712066009
H       -0.0496431409    0.4929702580    1.2704194130
H       -3.6974202904   -4.1286371228   -1.3830434337
H       -4.0203375887   -2.6334001547   -2.2873292035
H       -2.3496687886   -3.2004323680   -2.0623583668
H       -5.2392138338   -1.7532736586   -0.1566552633
H       -4.8403646849   -3.3105204408    0.6046645491
H       -4.3009511346   -1.7766427401    1.3567866942
