25   
torsion grid (-90,)
C       -0.4094267227   -0.7500973276   -0.0303239826
C       -0.9171307885   -2.1639356725    1.7328508039
C       -0.7798651814   -0.7997915710    1.2878304220
C       -1.2683276301   -2.6648898616    3.1007698982
C       -0.6560901648   -3.0820517919    0.7165595698
C       -1.9517585727   -4.4614482340    1.8236460773
C       -3.4739609233   -5.6355681223    4.2695075319
C       -4.1888707149   -4.3010717962    4.1069248630
C       -2.6841812384   -4.3587459908    4.2273923491
C       -1.0187729069    0.4101255073    2.1475746158
N       -0.6299124642   -4.4182396394    1.1968357539
N       -1.7697695937   -4.0484082716    3.1417768301
O       -1.2430451795   -1.9858852251    4.1123215716
O       -2.9247987805   -4.9793113371    1.3230871819
S       -0.2058223051   -2.3396261967   -0.7626170892
H       -0.2611979375    0.1256750271   -0.6490338275
H       -3.5245946611   -6.1489222821    5.2251631509
H       -3.4601087220   -6.2834849580    3.4010621625
H       -4.6075204935   -4.1003716340    3.1272732393
H       -4.7399823238   -3.8872453437    4.9461275640
H       -2.2542304705   -4.0062598863    5.1568083821
H       -2.0304191181    0.3972591098    2.5646741967
H       -0.3300544365    0.4211938018    2.9968167751
H       -0.8883308065    1.3295302156    1.5709742417
H       -0.6805394360   -5.0817741310    0.4192712250
25   
torsion grid (-75,)
C       -0.4824490041   -0.8428322313    0.5663963306
C       -1.2611412159   -2.0250108445    2.4034225781
C       -1.1098977537   -0.7334689580    1.7779605723
C       -1.8016388560   -2.3432496982    3.7496979167
C       -0.7457868624   -3.0505709801    1.6295620225
C       -2.0407557419   -4.5154772908    2.7694778412
C       -4.4993067611   -4.5732780452    4.7066220852
C       -4.2601520827   -3.2439517695    5.3741479821
C       -3.0853537461   -4.1096700885    4.9901362726
C       -1.5890408996    0.5618278434    2.3713993112
N       -0.7100380210   -4.3218917712    2.2447094169
N       -2.1911820537   -3.7221412546    3.9176901144
O       -1.9641435759   -1.5221470252    4.6392042597
O       -2.7719750740   -5.4032200112    2.3905987194
S       -0.0421180645   -2.4980970539    0.1590885635
H       -0.2608764584   -0.0575502782   -0.1449085091
H       -4.8631146160   -5.4099845249    5.2952005482
H       -4.8219256178   -4.5749937960    3.6730081186
H       -4.4258973434   -2.3454594194    4.7916889578
H       -4.4559977785   -3.1330044133    6.4358785646
H       -2.5567886882   -4.6059899564    5.7991786327
H       -2.6660668802    0.5273283077    2.5637107171
H       -1.1048612782    0.7463090763    3.3340328934
H       -1.3807803030    1.3982132136    1.6990987399
H       -0.5633203513   -5.0684768632    1.5632871076
25   
torsion grid (-60,)
C       -0.4396585722   -0.8071761501    0.5765628317
C       -1.2846932773   -1.9971066450    2.3781781634
C       -1.0812757109   -0.6985263873    1.7791575619
C       -1.8542562137   -2.3183902192    3.6979082032
C       -0.7913967726   -3.0238435609    1.5994052198
C       -2.0243339921   -4.5919525358    2.8023066741
C       -4.4695015304   -4.6223159636    4.7355513105
C       -4.2876539451   -3.2526291506    5.3364475358
C       -3.0782082267   -4.0772917625    4.9722383706
C       -1.5270365387    0.6000844018    2.3908589629
N       -0.7947483151   -4.3210453786    2.1303213056
N       -2.2316227658   -3.6928809386    3.8588196683
O       -2.0408000409   -1.5021526056    4.5893717642
O       -2.6519986707   -5.6118139185    2.5974274580
S       -0.0476135334   -2.4678375336    0.1453132934
H       -0.1780718498   -0.0164442174   -0.1147281105
H       -4.7818772460   -5.4488018844    5.3663865969
H       -4.8066919281   -4.6883637649    3.7084455213
H       -4.5062933456   -2.3920172799    4.7152376439
H       -4.4718412711   -3.0998848611    6.3950479032
H       -2.5093474068   -4.5075391591    5.7917524557
H       -2.6069526018    0.5966905274    2.5685995794
H       -1.0512056799    0.7509096736    3.3634359755
H       -1.2820915163    1.4412737541    1.7371053767
H       -0.6515329487   -5.0546835553    1.4376626687
25   
torsion grid (-45,)
C       -0.4137019787   -0.7834797181    0.5818306389
C       -1.3020305620   -1.9809584689    2.3584280843
C       -1.0562398140   -0.6778912880    1.7831745571
C       -1.8954359894   -2.3043652697    3.6584879092
C       -0.8368074552   -3.0077679879    1.5660523572
C       -1.9925217822   -4.6469748370    2.8404129898
C       -4.4361382509   -4.6769996425    4.7556756668
C       -4.3192102418   -3.2733825606    5.2924380489
C       -3.0738796406   -4.0557813126    4.9591753467
C       -1.4660183851    0.6219982259    2.4167487959
N       -0.8834152756   -4.3200293988    2.0260297535
N       -2.2622029001   -3.6780267264    3.8164478226
O       -2.1052592443   -1.4903885446    4.5480828600
O       -2.5091549399   -5.7488076198    2.7821241092
S       -0.0719832164   -2.4467968802    0.1208863106
H       -0.1217810304    0.0119600973   -0.0916353084
H       -4.7062979947   -5.4882103234    5.4245184884
H       -4.7727968636   -4.8064932315    3.7341270553
H       -4.5806329160   -2.4537679350    4.6331303426
H       -4.5072407282   -3.0805908778    6.3437957991
H       -2.4781768344   -4.4196533235    5.7915833583
H       -2.5461594878    0.6470855154    2.5903725816
H       -0.9909057720    0.7416356275    3.3939736715
H       -1.1928811266    1.4666719486    1.7787899411
H       -0.7382617050   -5.0520819465    1.3353963740
25   
torsion grid (-30,)
C       -0.3857363440   -0.7658167646    0.5781822633
C       -1.3115797191   -1.9643436478    2.3361602879
C       -1.0246740493   -0.6601631755    1.7807509080
C       -1.9276608260   -2.2837570214    3.6220618898
C       -0.8755338397   -2.9922011871    1.5288592819
C       -1.9454828641   -4.6716425567    2.8821282503
C       -4.3948520877   -4.7186074776    4.7753035627
C       -4.3429062408   -3.2900238653    5.2555681320
C       -3.0639889364   -4.0289247306    4.9538237045
C       -1.3925147301    0.6420194645    2.4349540382
N       -0.9728983549   -4.3085809984    1.9375644731
N       -2.2790218577   -3.6588370658    3.7900063004
O       -2.1645101797   -1.4648249806    4.5012119664
O       -2.3450043207   -5.8232484365    2.9497794325
S       -0.0968899955   -2.4310757303    0.0887666481
H       -0.0653243301    0.0313177505   -0.0800954703
H       -4.6299175372   -5.5141597233    5.4753217177
H       -4.7233480530   -4.9033737439    3.7592010933
H       -4.6394552161   -2.5102026396    4.5634049744
H       -4.5418073440   -3.0637561275    6.2982225924
H       -2.4513438036   -4.3323897905    5.7979171628
H       -2.4708767607    0.6982507993    2.6109487833
H       -0.9133304336    0.7318581112    3.4134177409
H       -1.0925157530    1.4869138511    1.8094023999
H       -0.7985887186   -5.0519321069    1.2690898859
25   
torsion grid (-15,)
C       -0.4136146643   -0.7572804694    0.5954879163
C       -1.3752465181   -1.9509541462    2.3380805010
C       -1.0462135412   -0.6487823858    1.8006384124
C       -2.0150252258   -2.2648242928    3.6103054151
C       -0.9740442296   -2.9809624894    1.5154255704
C       -1.9662923301   -4.6813674457    2.9297237245
C       -4.3975725259   -4.7719206597    4.8285087237
C       -4.4211960764   -3.3225043032    5.2471499663
C       -3.1063657022   -4.0056847514    4.9710458764
C       -1.3683639708    0.6550952451    2.4752319077
N       -1.1327650123   -4.2995527181    1.8752767564
N       -2.3555772761   -3.6411379514    3.7832046851
O       -2.2749680377   -1.4427958731    4.4805804659
O       -2.2575993411   -5.8565237705    3.0958457360
S       -0.1847147945   -2.4232171962    0.0777528291
H       -0.0620859464    0.0387465299   -0.0480537945
H       -4.5885824796   -5.5476180194    5.5632648644
H       -4.7186466717   -5.0177978225    3.8227865170
H       -4.7592007066   -2.5900517804    4.5226699779
H       -4.6303710717   -3.0626220812    6.2798759396
H       -2.4736775289   -4.2383774400    5.8226980947
H       -2.4443146663    0.7472434352    2.6499133897
H       -0.8892782744    0.7123132198    3.4562435992
H       -1.0356025941    1.4981709626    1.8638922462
H       -0.9178590306   -5.0541179627    1.2337893666
25   
torsion grid (0,)
C       -0.4037038017   -0.7280829275    0.5856128080
C       -1.4015527484   -1.9278164475    2.3041943106
C       -1.0330106882   -0.6253693730    1.7927287437
C       -2.0616421897   -2.2446393842    3.5641947671
C       -1.0285675378   -2.9528459994    1.4613895883
C       -1.9390031983   -4.6695572092    2.9191704969
C       -4.3529209206   -4.8285264606    4.8280977353
C       -4.4475625740   -3.3708464957    5.2091903401
C       -3.1020118954   -3.9957000049    4.9444386680
C       -1.3113401501    0.6737602343    2.4953978839
N       -1.2538771738   -4.2712701206    1.7721769367
N       -2.3849144958   -3.6245444715    3.7386296727
O       -2.3464318496   -1.4238628178    4.4282443563
O       -2.1111065120   -5.8555045229    3.1605178624
S       -0.2291703848   -2.3888124468    0.0311955436
H       -0.0213859848    0.0695928463   -0.0379857075
H       -4.5037981551   -5.5925883849    5.5839748642
H       -4.6655733709   -5.1161072168    3.8304972718
H       -4.8231581571   -2.6751050335    4.4670377972
H       -4.6666741848   -3.0954658384    6.2358132429
H       -2.4530930912   -4.1733078969    5.7970106718
H       -2.3838379934    0.7999368156    2.6689716250
H       -0.8344291666    0.6923645700    3.4790455422
H       -0.9457243365    1.5176032762    1.9041610317
H       -0.9420459317   -5.0323380123    1.1811862125
25   
torsion grid (15,)
C       -0.3966365733   -0.7424631535    0.5880059660
C       -1.4510464711   -1.9206359577    2.2876547541
C       -1.0306703280   -0.6278274470    1.7915769080
C       -2.1409720731   -2.2216396024    3.5359096567
C       -1.1088350843   -2.9508482839    1.4380131010
C       -1.9577362060   -4.6503111349    2.9431532269
C       -4.3349199033   -4.8667352338    4.8875466449
C       -4.5057614365   -3.4016457925    5.2121830603
C       -3.1309576121   -3.9640348684    4.9583888952
C       -1.2629733530    0.6740682310    2.5057876003
N       -1.4207529372   -4.2619971521    1.7137059094
N       -2.4539128345   -3.6016646066    3.7278015619
O       -2.4493810559   -1.3905126360    4.3817058321
O       -2.0177704372   -5.8305523411    3.2531960084
S       -0.2850805113   -2.4023913950    0.0160557316
H        0.0270998703    0.0454955675   -0.0210263457
H       -4.4389675388   -5.6062152376    5.6750432603
H       -4.6401051207   -5.2105478431    3.9053317880
H       -4.9231412963   -2.7571434701    4.4462932873
H       -4.7321894753   -3.0987531577    6.2293909004
H       -2.4645751568   -4.0707198817    5.8092588172
H       -2.3313408870    0.8430368362    2.6673459113
H       -0.7984893918    0.6624435273    3.4955598894
H       -0.8543076590    1.5080093943    1.9288372578
H       -1.0206931785   -5.0254976944    1.1807513420
25   
torsion grid (30,)
C       -0.3641449790   -0.7455488054    0.5971000110
C       -1.4804082152   -1.9035976132    2.2699838263
C       -1.0086985478   -0.6209937518    1.7943181360
C       -2.2101016002   -2.1903680765    3.5007656515
C       -1.1613074787   -2.9364321177    1.4147170824
C       -1.9346179534   -4.6099781790    2.9597162693
C       -4.2908769182   -4.9088589244    4.9226459416
C       -4.5462474108   -3.4467075240    5.2050009696
C       -3.1422573729   -3.9352711280    4.9594290195
C       -1.1987493495    0.6796872103    2.5231305737
N       -1.5539923490   -4.2388376425    1.6605365053
N       -2.5032947634   -3.5727964764    3.7096480669
O       -2.5552071244   -1.3497535649    4.3222247541
O       -1.8634567537   -5.7704898018    3.3292099298
S       -0.3083417031   -2.4013598762    0.0063072436
H        0.1000726125    0.0324982345    0.0050351539
H       -4.3495667654   -5.6286370431    5.7326783420
H       -4.5803647280   -5.2985093188    3.9525513360
H       -5.0033317791   -2.8505705230    4.4227285215
H       -4.7861703018   -3.1289655336    6.2145259156
H       -2.4647349965   -3.9762522894    5.8071629128
H       -2.2613931805    0.8882535609    2.6746241663
H       -0.7468075234    0.6371226084    3.5180913789
H       -0.7496946634    1.5042391094    1.9629694387
H       -1.0926077071   -4.9964601728    1.1671784898
25   
torsion grid (45,)
C       -0.3181217961   -0.7596260964    0.6070918928
C       -1.5180781361   -1.8877978715    2.2417414011
C       -0.9857913528   -0.6205856455    1.7904646103
C       -2.3024832633   -2.1567608398    3.4470073494
C       -1.2172480072   -2.9247938267    1.3836170519
C       -1.9266613403   -4.5523318293    2.9605280082
C       -4.2363389205   -4.9540584095    4.9743797467
C       -4.5936107822   -3.5039707590    5.2066869764
C       -3.1614554756   -3.8993402173    4.9565269481
C       -1.1401451897    0.6796341565    2.5285507210
N       -1.7073023224   -4.2072606661    1.6071067428
N       -2.5766004535   -3.5417786004    3.6806921257
O       -2.6921523957   -1.3038992226    4.2343385959
O       -1.7175423729   -5.6779562796    3.3744350496
S       -0.3159324841   -2.4108197737    0.0005457731
H        0.1961643455    0.0033128290    0.0371071800
H       -4.2330159876   -5.6439261846    5.8120396421
H       -4.5106764218   -5.3997514327    4.0240000293
H       -5.1021603203   -2.9724258199    4.4097589867
H       -4.8429664250   -3.1676723606    6.2078460093
H       -2.4701768756   -3.8583494789    5.7932319646
H       -2.1967640580    0.9316128676    2.6530841258
H       -0.7179497834    0.6079701988    3.5350520851
H       -0.6405127279    1.4899322301    1.9909112463
H       -1.2310584534   -4.9663715011    1.1263929932
25   
torsion grid (60,)
C       -0.2632342679   -0.7933482939    0.6233795289
C       -1.5602148592   -1.8840720885    2.2090973431
C       -0.9614148308   -0.6373607282    1.7878491436
C       -2.4075979823   -2.1305776377    3.3842929135
C       -1.2734500009   -2.9256562292    1.3482972791
C       -1.9270855387   -4.4812368078    2.9523424466
C       -4.1860611663   -4.9967195849    5.0276843591
C       -4.6486260374   -3.5695243008    5.2141297527
C       -3.1951221705   -3.8651062208    4.9492340900
C       -1.0810842615    0.6607909138    2.5359496106
N       -1.8716919229   -4.1746674979    1.5598229482
N       -2.6734556942   -3.5184046309    3.6451738476
O       -2.8367717616   -1.2633145791    4.1327833974
O       -1.5584432879   -5.5473276498    3.4011147650
S       -0.3137268596   -2.4380461180   -0.0002823862
H        0.3056428280   -0.0495299258    0.0805502489
H       -4.1178427775   -5.6508624852    5.8907979904
H       -4.4435224219   -5.4971751915    4.0998912317
H       -5.2089809113   -3.1086205501    4.4080187331
H       -4.9057833639   -3.2173385822    6.2077979016
H       -2.4930516010   -3.7379484259    5.7683233189
H       -2.1287388754    0.9599177877    2.6270137122
H       -0.6974453334    0.5588587445    3.5554142855
H       -0.5258785780    1.4529645087    2.0266554285
H       -1.4029253438   -4.9442333287    1.0837607088
25   
torsion grid (75,)
C        0.0316622705   -0.8584547237    0.5930501395
C       -1.3925838347   -2.0022042067    2.0218319437
C       -0.7443816181   -0.7487992000    1.7142589045
C       -2.3227890719   -2.3008743952    3.1343920692
C       -1.0621895904   -3.0030704141    1.1219013830
C       -1.6602594461   -4.5439111995    2.6691133746
C       -3.8407930789   -5.3407357971    4.7964563046
C       -4.4543695968   -3.9726047614    4.9917250992
C       -2.9842402410   -4.1056575139    4.6888273328
C       -0.8956335285    0.5114404447    2.5195729182
N       -1.7485032360   -4.2282467233    1.2629280589
N       -2.5492003127   -3.7140705246    3.3671279460
O       -2.8240391107   -1.4622859222    3.8672613105
O       -1.0885999059   -5.5187018916    3.1021561911
S       -0.0042735062   -2.4659176458   -0.1243478420
H        0.6520723649   -0.1001481921    0.1330129607
H       -3.6801469829   -5.9772815807    5.6604702213
H       -4.0661102396   -5.8714718647    3.8770512228
H       -5.0820794688   -3.5801879007    4.1991395054
H       -4.7239088986   -3.6492430366    5.9918809917
H       -2.2789102436   -3.8957594169    5.4882452793
H       -1.9360399521    0.8483525951    2.5172920799
H       -0.6263946532    0.3399134324    3.5658618866
H       -0.2627772690    1.3068215615    2.1171874787
H       -1.2788157616   -4.9860943941    0.7647383530
25   
torsion grid (90,)
C        0.1458309752   -0.9052607530    0.6635483304
C       -1.4212466104   -2.0107191107    1.9639363828
C       -0.7045561906   -0.7812970576    1.7301788486
C       -2.4475690128   -2.2968594439    3.0158891384
C       -1.0622811657   -3.0123522645    1.0627488589
C       -1.6628650663   -4.4344507692    2.6172958101
C       -3.7536805713   -5.3669705573    4.8653532576
C       -4.4502696678   -4.0356297864    5.0386985444
C       -2.9956672355   -4.0813953861    4.6511139340
C       -0.8583775354    0.4700494761    2.5490359712
N       -1.8665374512   -4.1752623674    1.1900465224
N       -2.6759121807   -3.7329249832    3.2836616226
O       -2.9951312096   -1.4468243737    3.6938388182
O       -0.9125665409   -5.2670061278    3.0659408419
S        0.0992062447   -2.4975130504   -0.0896474622
H        0.8301283230   -0.1665084726    0.2664379459
H       -3.4991745911   -5.9491132883    5.7450888361
H       -3.9956509601   -5.9532236746    3.9846204128
H       -5.1494861594   -3.7256364711    4.2698602874
H       -4.6835419238   -3.6869519343    6.0394470400
H       -2.2591443875   -3.7878996477    5.3946369133
H       -1.8868829755    0.8382216164    2.5016328724
H       -0.6450776482    0.2731534886    3.6041011638
H       -0.1828795075    1.2526666437    2.1939679327
H       -1.4340889498   -4.9654412173    0.7042804440
