13   
torsion grid (-75,)
C        0.1943315834   -0.3249957557    0.7711031355
C        1.5976975026   -1.0000009977    2.6915671344
C       -0.6400880817   -1.1982043432    1.4509498833
C        1.4400057524   -0.2639799352    1.5190535245
C        0.3786459480   -1.4178137695    3.3700767201
N       -0.7457417039   -0.9812876405    2.8034630950
O        0.6495933479   -3.5689695412    4.6691298199
O        1.7665619459   -1.5189516950    5.6644016032
S        0.4755559540   -2.1200043423    5.1306005795
Cl       2.7806722051    0.7074117104    0.8765479973
H        0.1421890381   -0.1174490986   -0.2922810998
H        2.5503876023   -1.0970299574    3.2015515059
H       -1.5758392770   -1.5231335972    0.9759797920
13   
torsion grid (-60,)
C        0.2313763007   -0.3738495176    0.7878863559
C        1.5881707835   -0.9759346320    2.7276826429
C       -0.6968609117   -1.1885875158    1.4361250896
C        1.4491539987   -0.2925803019    1.5234082984
C        0.3841007385   -1.4110912768    3.3600722492
N       -0.7866913309   -1.1007579421    2.7903664511
O        0.6433405847   -3.5874789906    4.6928755942
O        1.7859678532   -1.5245886970    5.6284746035
S        0.4825560001   -2.1292607895    5.1214319281
Cl       2.7917529854    0.6660609406    0.8637683253
H        0.1670072482   -0.1118787253   -0.2627358343
H        2.5270611269   -1.0586545076    3.2666799541
H       -1.6398308991   -1.4214033425    0.9277310014
13   
torsion grid (-45,)
C        0.2483394096   -0.4046438952    0.7946640100
C        1.5878209339   -0.9649664553    2.7399597130
C       -0.7435153918   -1.1555474952    1.4287224454
C        1.4589011360   -0.3243085397    1.5163031948
C        0.3953143158   -1.4246592588    3.3488781562
N       -0.7984901623   -1.2204955945    2.7783110428
O        0.7809392011   -3.6049804367    4.6725113946
O        1.7757559819   -1.4698343129    5.6176011178
S        0.5177614456   -2.1611851722    5.0992114913
Cl       2.8142290783    0.5911472490    0.8203779266
H        0.1725009279   -0.0982833002   -0.2433352135
H        2.5168455037   -1.0248882972    3.2998985137
H       -1.6908764283   -1.3273857663    0.9093154546
13   
torsion grid (-30,)
C        0.2622462025   -0.4137615921    0.8021769929
C        1.5712557874   -0.9464650653    2.7711070307
C       -0.7784177722   -1.0997847111    1.4292074681
C        1.4655229898   -0.3495830964    1.5265394453
C        0.3831803723   -1.4367965096    3.3526603815
N       -0.8083731976   -1.3214160758    2.7574404471
O        0.8737613977   -3.6139536418    4.6703760270
O        1.7169613616   -1.4212621051    5.6353312055
S        0.5130033487   -2.1903448474    5.0931980749
Cl       2.8505346938    0.5033964539    0.8073128958
H        0.1946848674   -0.0773322060   -0.2270859276
H        2.4863391201   -0.9803557859    3.3563932770
H       -1.7249644367   -1.2234332107    0.8981587320
13   
torsion grid (-15,)
C        0.2653914361   -0.4325892781    0.8025163489
C        1.5582102463   -0.9265475442    2.7868625201
C       -0.8101911754   -1.0563575134    1.4355500909
C        1.4674499780   -0.3766638248    1.5218370813
C        0.3774485999   -1.4486263403    3.3467033014
N       -0.8082330292   -1.4203206036    2.7297426504
O        0.9718468492   -3.6166972404    4.6592978926
O        1.6616649625   -1.3782185080    5.6451732825
S        0.5170970742   -2.2192891951    5.0778999374
Cl       2.8726230163    0.4152720703    0.7720440814
H        0.1915831216   -0.0660923498   -0.2162426103
H        2.4609572305   -0.9286980251    3.3924820303
H       -1.7637269055   -1.1381834500    0.9108103696
13   
torsion grid (0,)
C        0.1583526608   -0.1972223780    0.8893090264
C        1.5109225844   -0.4507181379    2.8762512828
C       -0.4709500961   -1.3917281694    1.2412889092
C        1.1716067906    0.2601847186    1.7414234249
C        0.7949572694   -1.6331557043    3.1327331844
N       -0.1701479362   -2.1076308297    2.3381052590
O        2.6822494667   -2.1780365664    4.8736945053
O        0.3223671420   -1.7206787839    5.7029734519
S        1.1990425652   -2.5366282328    4.7550401367
Cl       2.0175696046    1.7686842535    1.3258938146
H       -0.1208408547    0.3457820588   -0.0079771136
H        2.3061822416   -0.1720365326    3.5630847149
H       -1.2584443529   -1.7927185246    0.6011267481
13   
torsion grid (15,)
C        0.1607623909   -0.2045251240    0.8837125382
C        1.4818923989   -0.4289527934    2.8952436751
C       -0.5058269437   -1.3664323609    1.2748754640
C        1.1798868370    0.2515124461    1.7309777101
C        0.7968470512   -1.6347031931    3.1316686227
N       -0.1035953504   -2.1527798642    2.2893739593
O        2.6690457121   -2.1344596010    4.9162296795
O        0.2692104604   -1.7868673275    5.6754263595
S        1.2078488731   -2.5523556547    4.7438224742
Cl       2.0727364188    1.7211645580    1.2768408017
H       -0.1374924581    0.3488515724   -0.0009723790
H        2.2491168189   -0.1252342215    3.6028916102
H       -1.3164933255   -1.7539539232    0.6551385695
13   
torsion grid (30,)
C        0.1810623802   -0.2069169997    0.8641316690
C        1.4874375146   -0.4069011112    2.8957143994
C       -0.5102122299   -1.3319464272    1.3149399258
C        1.2130476899    0.2445782614    1.7054710246
C        0.8322550075   -1.6354543549    3.1227535795
N       -0.0041186021   -2.1784853246    2.2322507347
O        2.6892698438   -2.0719824259    4.9532665173
O        0.2508621508   -1.8791390317    5.6366550958
S        1.2627719271   -2.5685765714    4.7221602399
Cl       2.1501503827    1.6745193808    1.2153422658
H       -0.1441611758    0.3629949605    0.0000938919
H        2.2326293133   -0.0770781745    3.6147357392
H       -1.3528433495   -1.7043770460    0.7279808762
13   
torsion grid (45,)
C        0.1763783416   -0.2136831177    0.8478391070
C        1.4673751576   -0.3725238863    2.8973379204
C       -0.5309842294   -1.2993082003    1.3681462707
C        1.2218853409    0.2434724027    1.6788626450
C        0.8449672041   -1.6250057561    3.1165833362
N        0.0812566266   -2.1944647513    2.1759121528
O        2.6770090513   -2.0108407777    5.0005980797
O        0.2103378288   -1.9523248326    5.5954188981
S        1.2884075731   -2.5717358334    4.7066133733
Cl       2.1986698685    1.6295484673    1.1459741239
H       -0.1783075154    0.3585240163   -0.0029415162
H        2.1888995374   -0.0132561167    3.6257183518
H       -1.4013945913   -1.6748912600    0.8221348955
13   
torsion grid (60,)
C        0.1854607001   -0.2254491243    0.8152693451
C        1.4537417376   -0.3633197642    2.8982130684
C       -0.5260103922   -1.2650191416    1.4142190951
C        1.2423800727    0.2282795821    1.6564749723
C        0.8542355313   -1.6420768171    3.1090089212
N        0.1761289563   -2.2052741324    2.1017320226
O        2.6499890724   -2.0043916579    5.0500771491
O        0.1619016089   -2.0722341714    5.5412711152
S        1.3036127235   -2.6160299557    4.6829628245
Cl       2.2608639338    1.5771232356    1.1087512961
H       -0.2003708977    0.3680512699   -0.0066005014
H        2.1539739579    0.0191381225    3.6346073648
H       -1.4306636580   -1.6380772905    0.9199616745
13   
torsion grid (75,)
C        0.1917055045   -0.2480177651    0.7562499515
C        1.4236622889   -0.3306556288    2.8983621693
C       -0.4958636481   -1.2300835924    1.4517508248
C        1.2553289014    0.2210879897    1.6300517625
C        0.8516623118   -1.6519682399    3.1175988908
N        0.2862768276   -2.1944761974    2.0397200260
O        2.6619366661   -2.0424545915    5.0594155182
O        0.1656528350   -2.0546188304    5.5167931396
S        1.3109829820   -2.6282179176    4.6789758446
Cl       2.2904644930    1.5561480162    1.0823979482
H       -0.2317498045    0.3684097928   -0.0294254492
H        2.1063422250    0.0821548837    3.6336560153
H       -1.4434331803   -1.6094900951    1.0455970546
