23   
torsion grid (-165,)
C       -0.0463251785    1.0916351810    0.7925038769
C       -0.8491935678    0.0678991195    0.3284517116
C        1.2691544181   -0.4718775109    0.1643452699
C       -0.3981702905   -2.2181828390   -0.6666318170
C        5.2572898425   -1.0854799451    0.1398784176
C        3.7578562192   -0.8282162212    2.0651944476
N        1.2781956753    0.7433263115    0.6786190143
N        0.0009781312   -0.9402503923   -0.0722895970
N        3.9131707678   -0.6851510349    0.6055385673
O        2.4202938089   -2.8123230349    0.2167311573
O        3.0038992455   -1.2761762028   -1.6992417992
S        2.6998096727   -1.4511572573   -0.2769439884
H       -0.3457185840    2.0494100280    1.1971555828
H       -1.9222109292   -0.0324429234    0.2441857071
H       -1.4831696898   -2.2197162887   -0.7737455978
H       -0.0816562400   -3.0442752709   -0.0295421539
H        0.0607252969   -2.3336337433   -1.6508074421
H        5.3194458070   -0.9688201407   -0.9418541538
H        5.5052994794   -2.1187353436    0.4171983441
H        5.9736818489   -0.4063296263    0.6081190999
H        2.7773426062   -0.4668313617    2.3729235160
H        4.5123364645   -0.1907833973    2.5325812072
H        3.8973134805   -1.8649062814    2.3977594642
23   
torsion grid (-150,)
C       -0.0294269256    1.0815656848    0.8112791267
C       -0.8501310741    0.1340403388    0.2318755317
C        1.2395207377   -0.5294418789    0.2112837754
C       -0.4355855959   -2.1397994224   -0.8227313841
C        5.1949028762   -0.9821766529    0.0334361150
C        3.8561505898   -0.8693769793    2.1122441649
N        1.2786236685    0.6552147763    0.7900324976
N       -0.0283888598   -0.9056571043   -0.1490673259
N        3.8694369225   -0.7835433033    0.6433082044
O        2.3095762625   -2.8860285302    0.5614341021
O        2.8956254024   -1.6260599830   -1.5502157597
S        2.6273073888   -1.6136838933   -0.1084472651
H       -0.3041698120    2.0381367807    1.2357309451
H       -1.9161805263    0.1059345571    0.0547452187
H       -1.5088289265   -2.0928788825   -1.0084975146
H       -0.2045164561   -3.0019793271   -0.1950238266
H        0.0927456194   -2.2375433217   -1.7735066242
H        5.1174724972   -0.8906359594   -1.0491772137
H        5.6317950635   -1.9568372008    0.2895231446
H        5.8453319590   -0.1886717685    0.4104615107
H        2.8631261533   -0.6265243649    2.4897330881
H        4.5511092364   -0.1147448443    2.4888649518
H        4.1570807577   -1.8613824639    2.4717975473
23   
torsion grid (-135,)
C        0.0552593144    1.1003076440    0.8251770295
C       -0.8100669616    0.1813357955    0.2650368926
C        1.2428459603   -0.5896383055    0.2769370086
C       -0.5039226095   -2.1419957354   -0.7196412392
C        5.1292674074   -0.9043366008    0.0180758574
C        3.9179447082   -1.0271638386    2.1959093257
N        1.3399135552    0.6061624778    0.8254703788
N       -0.0403680031   -0.9091633584   -0.0820439840
N        3.8489607543   -0.9504215117    0.7328182650
O        2.2094909551   -2.9634082088    0.7491812975
O        2.8488510371   -1.8305009625   -1.4251264746
S        2.5849690949   -1.7455082073    0.0151923496
H       -0.1724717015    2.0808467157    1.2219471964
H       -1.8749913566    0.2040933630    0.0801014539
H       -1.5740687030   -2.0523763573   -0.9077855450
H       -0.3127075095   -2.9950647854   -0.0663149323
H        0.0194752401   -2.2919911587   -1.6663780687
H        4.9492084637   -0.8358331821   -1.0537017688
H        5.7473647469   -1.7878463794    0.2257502050
H        5.6616765258   -0.0072846164    0.3472110384
H        2.9215478889   -0.9168783865    2.6238987943
H        4.5261966052   -0.1882908456    2.5440180497
H        4.3584381317   -1.9718129741    2.5382304862
23   
torsion grid (-120,)
C        0.1341881750    1.0084908311    0.8159371403
C       -0.7651968881    0.1108696267    0.2750070887
C        1.2599746169   -0.7308195521    0.2878185272
C       -0.5406951286   -2.2351800904   -0.6797163797
C        5.0678440358   -0.8260051918    0.1011200023
C        3.8562551340   -1.1460652799    2.2719826879
N        1.4011572341    0.4703428705    0.8163355525
N       -0.0345464346   -1.0100884436   -0.0606028612
N        3.8419364771   -1.1860689498    0.8104079687
O        2.1551465193   -3.1211762822    0.7426391326
O        2.8983645665   -1.9706054922   -1.3930495936
S        2.5877531703   -1.9068171695    0.0379278347
H       -0.0585653014    2.0015411814    1.1999594917
H       -1.8307137764    0.1654310675    0.1001586725
H       -1.6121497821   -2.1213556122   -0.8463695766
H       -0.3550072634   -3.0879792653   -0.0248504899
H       -0.0415399348   -2.4040783428   -1.6365475291
H        4.9035284686   -0.8885893454   -0.9735080634
H        5.8849615006   -1.5031756787    0.3786846309
H        5.3439103256    0.2018025919    0.3612916396
H        2.9073127679   -1.5044898850    2.6695112769
H        4.0022590424   -0.1134235206    2.6036261000
H        4.6578032633   -1.7833888340    2.6645289782
23   
torsion grid (-105,)
C        0.3066467847    1.0926239380    0.7095547088
C       -0.6544143111    0.2193498701    0.2393267914
C        1.3269605406   -0.7199924065    0.2065948366
C       -0.5818147750   -2.1633867399   -0.6421379290
C        5.0251741383   -0.7117433751    0.1142761150
C        3.7865645486   -1.2061347199    2.2366967387
N        1.5453509278    0.4934769689    0.6801684822
N        0.0079456646   -0.9476127713   -0.0812392643
N        3.8876664371   -1.3409726928    0.7839904316
O        2.1147388492   -3.1554730616    0.5785679923
O        2.9718164907   -1.9486676572   -1.4840330953
S        2.6154351499   -1.9346180605   -0.0641258849
H        0.1756159401    2.1062389085    1.0647071995
H       -1.7229336927    0.3183551374    0.1080190073
H       -1.6525892082   -2.0010592280   -0.7681633286
H       -0.4077540867   -3.0062234130    0.0279145688
H       -0.1335308840   -2.3828576540   -1.6138872296
H        4.9784186806   -0.9123971921   -0.9548188685
H        5.9503820810   -1.1396210128    0.5147206822
H        5.0208142050    0.3724872461    0.2805921308
H        2.9768753719   -1.8326725735    2.6121312902
H        3.5976687211   -0.1639486622    2.5155052619
H        4.7211512789   -1.5530772749    2.6899750359
23   
torsion grid (-90,)
C        0.4389332079    0.7114144227    0.8552016977
C       -0.4676546768   -0.2177729485    0.3849022779
C        1.5198671398   -1.1189934575    0.6036205327
C       -0.2863418899   -2.6594512107   -0.2960090262
C        5.0449478608   -0.7656271780    0.7538058830
C        3.8359506574   -1.3876194258    2.8523068606
N        1.6825348703    0.1354189195    0.9850757026
N        0.2329978002   -1.3963008531    0.2285144786
N        4.0640702957   -1.6253414132    1.4240296437
O        2.3542385757   -3.4896121422    1.2637472853
O        3.3044538087   -2.4380203141   -0.8445086879
S        2.8544273531   -2.3144119950    0.5424366296
H        0.2656489972    1.7488711866    1.1087686055
H       -1.5225754264   -0.1519212897    0.1579098929
H       -1.3745686140   -2.5995046986   -0.3306801667
H        0.0171822306   -3.4796165298    0.3552305126
H        0.1006730010   -2.8374812890   -1.3026286550
H        5.1416359352   -1.0660226759   -0.2882498754
H        6.0100592737   -0.9048339692    1.2504989052
H        4.7508835079    0.2895419251    0.8085699880
H        3.1536026265   -2.1422589958    3.2444412871
H        3.4230390879   -0.3876299589    3.0254307571
H        4.7934720603   -1.4905985229    3.3718989895
23   
torsion grid (-75,)
C        0.5941268924    0.5142173288    0.7897026138
C       -0.2829276703   -0.3705655602    0.1947485274
C        1.6851562555   -1.2985646375    0.4681426046
C       -0.0608880824   -2.7726599859   -0.6223921523
C        5.0216379222   -0.7741651613    0.4436140185
C        4.1860816744   -1.6280689619    2.6286063495
N        1.8264723417   -0.0788456846    0.9552546141
N        0.4259595343   -1.5370328442   -0.0092844883
N        4.2831742254   -1.8156477837    1.1736277448
O        2.5407260171   -3.6546305520    1.2184249082
O        3.3424223530   -2.7125910063   -1.0001558455
S        2.9962732357   -2.5205212110    0.4097747975
H        0.4087499929    1.5323280142    1.1052952768
H       -1.3210927962   -0.2806709835   -0.0928096658
H       -1.1169977557   -2.6487614183   -0.8628978394
H        0.0624078529   -3.6052567148    0.0727379477
H        0.4999447580   -2.9823302946   -1.5359008706
H        5.0468774632   -1.0225412957   -0.6168032366
H        6.0475821396   -0.7677929257    0.8232238946
H        4.5664442892    0.2121803391    0.5867228460
H        3.6392256954   -2.4622667059    3.0673237537
H        3.6902830675   -0.6829158486    2.8765730172
H        5.2025492752   -1.6302169240    3.0329930117
23   
torsion grid (-60,)
C        0.5766317171    0.3876248947    0.7677003567
C       -0.2037967751   -0.4446503433   -0.0097569324
C        1.7241965847   -1.3895542565    0.4386280367
C        0.1324750908   -2.7736022176   -0.9729353931
C        4.8474577033   -0.6865289595    0.2272301337
C        4.4671144829   -1.5966096307    2.4987433673
N        1.7819864668   -0.2170586916    1.0451202342
N        0.5403646257   -1.5877307251   -0.2188889462
N        4.3798083501   -1.8193216600    1.0438270204
O        2.6638931083   -3.6346508526    1.4763779701
O        3.2641133017   -2.9959146705   -0.9073032900
S        3.0309022749   -2.6179665590    0.4902421562
H        0.3409617201    1.3768192312    1.1371131044
H       -1.1957894801   -0.3311684015   -0.4239503278
H       -0.8838536221   -2.6189737579   -1.3359696398
H        0.1541110885   -3.6530746123   -0.3254187747
H        0.8097596049   -2.9336287295   -1.8129087519
H        4.7266845198   -0.9247361389   -0.8299876049
H        5.9143012283   -0.5523872832    0.4277440733
H        4.3045365696    0.2330372398    0.4694387607
H        4.0985438679   -2.4766953470    3.0237684739
H        3.8990219080   -0.7111430130    2.8047663526
H        5.5242610154   -1.4606684292    2.7442012059
23   
torsion grid (-45,)
C        0.5233571559    0.3881079858    0.9018041915
C       -0.1490758985   -0.3365644057   -0.0631123359
C        1.6282887610   -1.4254400650    0.6184166133
C        0.2072065126   -2.5872689149   -1.1617381225
C        4.5706917566   -0.7575836156    0.1976374064
C        4.6284666048   -1.5978072275    2.5059683826
N        1.6307558116   -0.3064271655    1.3233664749
N        0.5649768007   -1.5023573432   -0.2447242719
N        4.3117292098   -1.8961045960    1.0947229776
O        2.5672833152   -3.5009067948    2.0145604860
O        2.9525993885   -3.3435137175   -0.4919170074
S        2.8667758144   -2.7055453398    0.8260617661
H        0.2721457111    1.3587647684    1.3085569109
H       -1.0509432950   -0.1342883218   -0.6236505939
H       -0.7539940849   -2.3427538585   -1.6150784975
H        0.1213462136   -3.5287356899   -0.6171259871
H        0.9698242492   -2.6991510640   -1.9321690336
H        4.2726897167   -1.0149068825   -0.8206007526
H        5.6490739959   -0.5756277462    0.1954725318
H        4.0428042193    0.1445441731    0.5246013256
H        4.3944540914   -2.4626285150    3.1239657340
H        4.0796375779   -0.7211635656    2.8695705633
H        5.7039328396   -1.4064581186    2.5597829267
23   
torsion grid (-30,)
C        0.4579972456    0.3561746283    0.9119763110
C       -0.0811806155   -0.3305157143   -0.1594654887
C        1.5688006857   -1.4671708000    0.7306331177
C        0.3760809150   -2.5454273544   -1.2743256754
C        4.3679678777   -0.7595434181    0.1948045144
C        4.8276324125   -1.6622239906    2.4172262480
N        1.4867223686   -0.3661561011    1.4596858000
N        0.6359994998   -1.5016691218   -0.2780894825
N        4.2857640927   -1.9399506533    1.0707139959
O        2.5778252767   -3.3114649729    2.3921603248
O        2.7499202674   -3.5876675152   -0.1278475420
S        2.7870676874   -2.7368216868    1.0661295220
H        0.1609790096    1.3172950501    1.3106092135
H       -0.8984539388   -0.1010645657   -0.8287723864
H       -0.4982657051   -2.2438441977   -1.8523191135
H        0.1810703972   -3.4985973649   -0.7830001981
H        1.2358864968   -2.6664853993   -1.9328086554
H        3.9144380890   -0.9799934530   -0.7745073696
H        5.4272424963   -0.5491763470    0.0229127276
H        3.8831437394    0.1176999339    0.6369720958
H        4.7494473422   -2.5517430527    3.0388983013
H        4.3126848985   -0.8261771056    2.9068659889
H        5.8847674777   -1.4134447554    2.2885506443
23   
torsion grid (-15,)
C        0.3755091866    0.3881987715    0.8816954787
C       -0.0534138247   -0.3034317685   -0.2360848401
C        1.5040538166   -1.4311388326    0.8172304282
C        0.5114722538   -2.5181985516   -1.2946862448
C        4.2363735600   -0.6782327890    0.2844387570
C        4.9963572959   -1.8051342391    2.3115662122
N        1.3492319214   -0.3264440926    1.5281181132
N        0.6756775616   -1.4716069719   -0.2805727682
N        4.2307665306   -1.9314686199    1.0553527011
O        2.5629152060   -3.0463614462    2.6668472242
O        2.5733345995   -3.7018546597    0.2150449923
S        2.7051515208   -2.6811860904    1.2596723298
H        0.0346679602    1.3476998052    1.2479864406
H       -0.8052768283   -0.0809204879   -0.9802991745
H       -0.2664174684   -2.1914755562   -1.9858024087
H        0.2214925616   -3.4582576517   -0.8262243135
H        1.4446816205   -2.6767173794   -1.8349414737
H        3.6619543858   -0.7960049609   -0.6375140738
H        5.2725855245   -0.4749323451    0.0002839882
H        3.8364776914    0.1688594055    0.8538485651
H        5.0041590614   -2.7547826810    2.8434398668
H        4.5954240812   -1.0258290261    2.9721712405
H        6.0230640629   -1.5531048027    2.0317461721
23   
torsion grid (0,)
C       -0.4485433995   -0.0316750185    1.7274990050
C       -0.8707406108   -1.0157439774    0.8518593192
C        1.1152382044   -0.2787685280    0.2872488891
C        0.0880320211   -2.1035887308   -1.2090618954
C        3.2947039091   -1.5060130370    1.6867330871
C        5.0215661340   -0.0742234434    0.6987050307
N        0.7938562369    0.4159683511    1.3650075037
N        0.1375080424   -1.1788402250   -0.0717328602
N        3.8122571499   -0.8825233341    0.4596314983
O        2.5626799603   -0.8484987158   -1.7943296099
O        3.0295582230    1.3406891597   -0.6083448998
S        2.6789725792   -0.0775355159   -0.5524492128
H       -0.9714934382    0.3721129908    2.5845416573
H       -1.7843180216   -1.5910704894    0.7956754317
H       -0.8346848675   -2.6794607928   -1.1292419744
H        0.9452742684   -2.7764291405   -1.1915169562
H        0.1039063214   -1.5507979288   -2.1480856337
H        2.4496886822   -2.1588863205    1.4589737233
H        2.9880321897   -0.7752755550    2.4454609744
H        4.0950411486   -2.1340003599    2.0878575676
H        5.4033702963    0.3192177862   -0.2432119046
H        5.7749600526   -0.7440816220    1.1222877550
H        4.8426298873    0.7622674689    1.3861914993
23   
torsion grid (15,)
C       -0.3385083064    0.0215666807    1.7624088785
C       -0.8566190513   -0.9186326936    0.8910129188
C        1.1555391078   -0.3138587609    0.2645778896
C       -0.0485131199   -2.0453484500   -1.2118338950
C        3.3700751961   -1.5977975595    1.5942373928
C        4.8948435964    0.1634262267    0.8659082915
N        0.9186059066    0.3884289900    1.3602136609
N        0.1060149920   -1.1382934606   -0.0698579431
N        3.8839298321   -0.8292004908    0.4493587716
O        2.5670944307   -1.1409439770   -1.7316162207
O        3.0358639727    1.2037550629   -0.8809795284
S        2.7064311560   -0.1951050447   -0.6196223171
H       -0.8023079854    0.4472530061    2.6425626153
H       -1.8085593015   -1.4300569933    0.8607236619
H       -1.0376471460   -2.4996749732   -1.1432203492
H        0.7176977512   -2.8201838407   -1.1909206740
H        0.0438693253   -1.4957125973   -2.1481037104
H        2.6231330961   -2.3225222443    1.2615527663
H        2.9328323072   -0.9579147615    2.3694682693
H        4.2092589536   -2.1612799161    2.0113914977
H        5.2818090992    0.6923616195   -0.0031439053
H        5.7136611593   -0.3948459781    1.3282539132
H        4.4979138666    0.8924785915    1.5837903128
23   
torsion grid (30,)
C       -0.2446204421    0.0290305983    1.7538151835
C       -0.8542221642   -0.8371848912    0.8659867420
C        1.2032996159   -0.4137706834    0.2373097372
C       -0.1612068151   -1.9879551227   -1.2676908144
C        3.4889714939   -1.7181359763    1.5386758230
C        4.7296918392    0.3085461445    0.9748973812
N        1.0394886616    0.2865354312    1.3478249185
N        0.0785381427   -1.1243582667   -0.1074268209
N        3.9417066171   -0.8289627632    0.4562799068
O        2.6140689360   -1.5205077935   -1.6100736294
O        3.0459972506    0.9423085847   -1.1577595407
S        2.7470281182   -0.4016718931   -0.6712399662
H       -0.6595344975    0.4739365659    2.6486842801
H       -1.8488217496   -1.2594664004    0.8342621026
H       -1.2035077572   -2.3074484991   -1.2352956387
H        0.4968858861   -2.8560761635   -1.2391984582
H        0.0275196386   -1.4423612419   -2.1921538450
H        2.8679338764   -2.5190555700    1.1303970412
H        2.9314049310   -1.1776623824    2.3114478406
H        4.3766254127   -2.1810296986    1.9787457247
H        5.0456112004    0.9463368986    0.1519609727
H        5.6170456405   -0.1131579583    1.4552734940
H        4.1671694419    0.9037486849    1.7051047017
23   
torsion grid (45,)
C       -0.1937660888    0.0060216027    1.8028365410
C       -0.8901441315   -0.7198720716    0.8559552937
C        1.2189367443   -0.5336857002    0.2850430351
C       -0.2786673175   -1.8273198613   -1.3345037554
C        3.6789954054   -1.7695184326    1.5885313966
C        4.5527987510    0.4502440692    1.0006126207
N        1.1233275988    0.1202678351    1.4306554240
N        0.0216917465   -1.0680984899   -0.1182680586
N        3.9614203839   -0.8100864036    0.5079139075
O        2.6441458288   -1.9238991580   -1.3584780337
O        2.9844448920    0.5938672622   -1.3730181513
S        2.7500130798   -0.6487145645   -0.6412979448
H       -0.5661324761    0.4457038716    2.7186812486
H       -1.9281119219   -1.0139633649    0.7880295195
H       -1.3546520295   -2.0019532305   -1.3661441816
H        0.2572654067   -2.7762227244   -1.3309119704
H        0.0220492374   -1.2606277063   -2.2169559892
H        3.2086525031   -2.6635181757    1.1745763162
H        3.0373609780   -1.3330588053    2.3614116733
H        4.6360632082   -2.0660415174    2.0267466063
H        4.7120501400    1.1305073535    0.1660389122
H        5.5219593062    0.1994910771    1.4410499725
H        3.9180994608    0.9297215597    1.7550808854
23   
torsion grid (60,)
C       -0.1845457156   -0.0762346607    1.8507449278
C       -0.9210732324   -0.5942585200    0.8041535968
C        1.2226528225   -0.6544370710    0.3441222628
C       -0.3113177578   -1.5427289923   -1.4741578548
C        3.9228596586   -1.7508469809    1.6824037614
C        4.3806659241    0.5685501491    0.9441937679
N        1.1580868844   -0.1169893495    1.5492071533
N       -0.0102522687   -0.9654946324   -0.1635452651
N        3.9674253810   -0.7943352692    0.5641792883
O        2.6905485741   -2.3135572044   -1.0162169824
O        2.9044967832    0.1652959791   -1.5281830274
S        2.7489957261   -0.9213857433   -0.5603116326
H       -0.5418608266    0.3165403559    2.7933861480
H       -1.9841442530   -0.7295399646    0.6624475916
H       -1.3941601144   -1.6175950526   -1.5771580501
H        0.1417955843   -2.5311359025   -1.5605608726
H        0.0826905380   -0.8999187543   -2.2644027006
H        3.6071873226   -2.7274612563    1.3140585546
H        3.2474920096   -1.4112771556    2.4748339768
H        4.9387081855   -1.8463238162    2.0763531492
H        4.3695964894    1.2102501046    0.0644251770
H        5.4064833718    0.5060311532    1.3186273172
H        3.7282318735    0.9851379180    1.7197719964
23   
torsion grid (75,)
C       -0.1909534590   -0.1552407072    1.9136104713
C       -0.9323819082   -0.4625399356    0.7902843436
C        1.2089599335   -0.7348759812    0.4022620316
C       -0.3173075782   -1.2637218160   -1.5476704121
C        4.1684215439   -1.6852890842    1.7236574113
C        4.1854300880    0.6586855120    0.8810878298
N        1.1514121764   -0.3308476302    1.6586058737
N       -0.0245166267   -0.8354182331   -0.1800068145
N        3.9429670167   -0.7639164645    0.5997904803
O        2.7312726817   -2.5802308263   -0.6835715838
O        2.8114563855   -0.2119979106   -1.5986896041
S        2.7292717145   -1.1326483992   -0.4615659691
H       -0.5445719814    0.1798915809    2.8796065838
H       -1.9957885489   -0.4493998410    0.5964835990
H       -1.3930395128   -1.1946524687   -1.7108156509
H        0.0091565808   -2.2957393632   -1.6940093796
H        0.2040394822   -0.6189921411   -2.2576338150
H        3.9875632304   -2.7084333297    1.3960907116
H        3.5210625409   -1.4441054576    2.5741564328
H        5.2177072654   -1.5956404956    2.0196155995
H        4.0255260966    1.2410332902   -0.0259769177
H        5.2324171536    0.7643363984    1.1797579030
H        3.5331118372    1.0244968225    1.6819433613
23   
torsion grid (90,)
C       -0.2228931666   -0.1538622270    1.8780303472
C       -0.9318636743   -0.3778150181    0.7143756560
C        1.2007971475   -0.7871427191    0.4110408275
C       -0.2796132853   -1.1677083686   -1.6136999432
C        4.3758316945   -1.6746305715    1.7164357881
C        4.0541826565    0.6678464004    0.8976703703
N        1.1132922504   -0.4168853728    1.6761790604
N       -0.0092829272   -0.7836775079   -0.2281028210
N        3.9109116997   -0.7712916814    0.6590875068
O        2.7735694669   -2.7394083844   -0.4455013766
O        2.8078134820   -0.4798893703   -1.6055430364
S        2.7337149350   -1.2778900173   -0.3772512115
H       -0.5960701793    0.1806784780    2.8369060152
H       -1.9821109954   -0.2853228904    0.4754237073
H       -1.3417497790   -1.0221264208   -1.8121960507
H       -0.0233187600   -2.2185813200   -1.7679010395
H        0.3132955100   -0.5527755987   -2.2920010331
H        4.2429740191   -2.7073299000    1.3981464275
H        3.8313247066   -1.5033246527    2.6529710124
H        5.4430497552   -1.4897097592    1.8725498547
H        3.7347306247    1.2189107035    0.0128053424
H        5.1136947752    0.8819588078    1.0685516137
H        3.4640461412    0.9848309211    1.7645877816
23   
torsion grid (105,)
C       -0.3420970963   -0.0556061742    1.8498617998
C       -1.0225865086   -0.2779610564    0.6688291883
C        1.1106801259   -0.7276268884    0.4300740617
C       -0.3239139641   -1.1009182933   -1.6318026405
C        4.4836340725   -1.6462093578    1.6376623521
C        3.9426845102    0.7142668519    0.9747261976
N        0.9938491433   -0.3440545387    1.6885229867
N       -0.0811244540   -0.7073483467   -0.2436617529
N        3.7909321973   -0.7214524011    0.7415472548
O        2.6974563634   -2.7126277841   -0.3526615425
O        2.7411433025   -0.4823929236   -1.5646068451
S        2.6533916395   -1.2496379921   -0.3163030040
H       -0.7359451626    0.2944307287    2.7948831639
H       -2.0641316322   -0.1704346761    0.3997327444
H       -1.3798595289   -0.9459982199   -1.8548766323
H       -0.0761463040   -2.1559094976   -1.7710786004
H        0.2911941698   -0.4993318914   -2.3019380604
H        4.2893172849   -2.6715777034    1.3276085287
H        4.1450670803   -1.5095087446    2.6720510312
H        5.5604724161   -1.4558027082    1.5771292311
H        3.4900505761    1.2727701537    0.1548183656
H        5.0100981230    0.9575314679    1.0010647339
H        3.4670019770    1.0050272234    1.9174439316
23   
torsion grid (120,)
C       -0.4663791427    0.0468390995    1.7830371111
C       -1.1147551820   -0.2565525891    0.6020236452
C        1.0276749708   -0.7000639155    0.4482443455
C       -0.3418415407   -1.2013277006   -1.6286847178
C        4.5209036107   -1.7647278812    1.5467603331
C        3.9782785199    0.6328337500    1.0575229362
N        0.8760638107   -0.2378038141    1.6752401307
N       -0.1460540903   -0.7341836904   -0.2561873351
N        3.6639191096   -0.7845019660    0.8832166091
O        2.5816845396   -2.6956915204   -0.3565190803
O        2.7353644121   -0.4280987649   -1.4841199280
S        2.5822746992   -1.2328726791   -0.2646011787
H       -0.8877340204    0.4492745848    2.6947876593
H       -2.1503160733   -0.1804390041    0.3008612373
H       -1.3984167418   -1.1044699773   -1.8797147448
H       -0.0440829118   -2.2489485564   -1.7131347648
H        0.2592373327   -0.6028458331   -2.3150267930
H        4.1612205957   -2.7707687171    1.3363639721
H        4.4910297897   -1.5934276247    2.6284599844
H        5.5549686662   -1.6725682673    1.1925406865
H        3.3067952274    1.2459094730    0.4573363138
H        5.0083308616    0.8382363293    0.7420210218
H        3.8472736738    0.9048904641    2.1094159614
23   
torsion grid (135,)
C       -0.5706669268    0.0781866103    1.8461709951
C       -1.1837277745   -0.2519400107    0.6536136766
C        0.9613024852   -0.7017432329    0.5765257705
C       -0.3481402947   -1.2471125785   -1.5310106223
C        4.5832799458   -1.8517387755    1.4877456280
C        3.9769110413    0.5496674446    1.1874677980
N        0.7739358264   -0.2099314312    1.7861744969
N       -0.1906388049   -0.7493485757   -0.1639963357
N        3.5743106379   -0.8582810910    1.1040791164
O        2.4823559715   -2.7096595709   -0.2418255291
O        2.7343929169   -0.4278241272   -1.3141943415
S        2.5204033791   -1.2490599560   -0.1130496886
H       -1.0182054822    0.5010986289    2.7358897740
H       -2.2102880124   -0.1860105205    0.3210351024
H       -1.3991725285   -1.1661689074   -1.8092209529
H       -0.0373632237   -2.2927161791   -1.5858951416
H        0.2624775059   -0.6560589357   -2.2157405909
H        4.1651869800   -2.8532027524    1.3976879007
H        4.8482904748   -1.6697206378    2.5332640469
H        5.4869538209   -1.7794663079    0.8681494734
H        3.1160290601    1.1958559765    1.0158262327
H        4.7660351268    0.7956535343    0.4661173799
H        4.3352319330    0.7327551765    2.2038055016
23   
torsion grid (150,)
C       -0.4139489791    1.1192105366    0.5649998516
C       -0.8278421564   -0.1915479208    0.4146599392
C        1.2884718205    0.0203829642   -0.1154206618
C        0.3280517171   -2.3359552490   -0.2765232185
C        4.4486660371   -2.2848167646    0.5511108125
C        3.8015581922   -0.3060785330    1.8879415401
N        0.9128795689    1.2368773229    0.2338726307
N        0.2706523889   -0.8971670751   -0.0224305678
N        3.4562236426   -1.2228234398    0.7884738802
O        2.8465639226   -1.4319545805   -1.6645141955
O        3.6981235053    0.8208053642   -0.8355377742
S        2.9450503528   -0.4096497159   -0.6160835662
H       -0.9958393364    1.9733397085    0.8855919004
H       -1.7840823260   -0.6727261233    0.5667557992
H       -0.6559055695   -2.7598262108   -0.0734931153
H        1.0667142152   -2.7970704544    0.3832137634
H        0.6108297467   -2.5246906088   -1.3121130029
H        4.1212877562   -2.9117312283   -0.2776714272
H        4.5018119711   -2.8912805929    1.4595188181
H        5.4483625198   -1.8858740923    0.3309802261
H        3.0041138851    0.4272013121    2.0246591187
H        4.7436319439    0.2252621501    1.7051332984
H        3.8873198631   -0.8998409017    2.8019659362
23   
torsion grid (165,)
C       -0.3923875054    1.1714769199    0.5139783048
C       -0.8323534397   -0.1360885510    0.4090122108
C        1.2963388123    0.0109362673   -0.0897139262
C        0.2811386651   -2.3262943147   -0.2070480610
C        4.6305167961   -2.1140311593    0.6169681018
C        3.5953509937   -0.3611724689    1.9813545631
N        0.9412786259    1.2485775845    0.2021550134
N        0.2579721123   -0.8812668875    0.0229317568
N        3.4277506542   -1.2868038592    0.8440357675
O        2.8229281643   -1.5136632884   -1.6125661228
O        3.7301235974    0.7272082669   -0.8209935608
S        2.9389526703   -0.4767769193   -0.5806921255
H       -0.9604847265    2.0493630265    0.7923710587
H       -1.8007283255   -0.5906183364    0.5661779483
H       -0.6757233143   -2.7391337308    0.1140857753
H        1.0877669696   -2.7764383217    0.3743442718
H        0.4465377649   -2.5379294002   -1.2640391742
H        4.4705616650   -2.7606301527   -0.2461596228
H        4.7714804079   -2.7369581987    1.5041038556
H        5.5317239540   -1.5064635837    0.4599573550
H        2.6956022482    0.2425925186    2.1109978044
H        4.4552895895    0.3074299352    1.8492896269
H        3.7388692509   -0.9670021683    2.8799052196
23   
torsion grid (180,)
C       -0.2964635577    1.2321195911    0.4891492571
C       -0.7926405157   -0.0589095206    0.4355453202
C        1.3252860969   -0.0137398746   -0.1251531568
C        0.2090431861   -2.3083021678   -0.1633410556
C        4.7882333382   -1.9680812481    0.5766679286
C        3.4320942995   -0.5041883200    1.9655666510
N        1.0299033202    1.2449128682    0.1407307051
N        0.2547518467   -0.8588741770    0.0414246059
N        3.4379206359   -1.3973841318    0.7868807816
O        2.7568148274   -1.6324535020   -1.6560524984
O        3.7679960113    0.5794008326   -0.9201494531
S        2.9314126835   -0.5866795011   -0.6429033468
H       -0.8201321185    2.1405676343    0.7564347401
H       -1.7740322189   -0.4678072968    0.6323845686
H       -0.7513548030   -2.6744680270    0.2009264491
H        1.0184607414   -2.7839697147    0.3929140421
H        0.3239948382   -2.5427207612   -1.2222632158
H        4.7868430521   -2.5865563990   -0.3222871939
H        5.0138852856   -2.6040316244    1.4361948140
H        5.5579225334   -1.1907361817    0.4888440542
H        2.4317964546   -0.1052683600    2.1366050706
H        4.1374635499    0.3306172687    1.8629923268
H        3.7131101479   -1.1100144845    2.8307568331
