18   
torsion grid (-165,)
C       -1.3135770193    0.3939776300    2.6003616482
C       -0.9390280935    0.8200066929    3.8387450570
C       -0.0831578280    0.3583744656    1.8692558853
C        1.2144991277   -1.0278592250    0.1360791210
C       -1.0573803494   -0.1209576282   -0.4971897820
C       -0.1006983274    1.0207222173   -0.6352189317
C        0.1450585651   -0.0245621307    0.4484729131
N        0.9331100613    0.7348470722    2.6209630885
O        1.6859579166   -1.2004399846   -0.9742426196
O        0.3916068685    1.0283875662    3.8774176927
O        1.5659734559   -1.7846440053    1.2006634244
H       -2.3050693872    0.1273202592    2.2647301608
H       -1.4763633119    1.0087412113    4.7589071839
H       -2.0360205428    0.0660959164   -0.0685038209
H       -1.0174786044   -0.9091789692   -1.2408489672
H        0.5934303206    1.0078403242   -1.4680741901
H       -0.4096181293    1.9985957440   -0.2814308661
H        2.2472264868   -2.4044629382    0.8763280924
18   
torsion grid (-150,)
C       -1.2704582049    0.2085467015    2.6418957991
C       -0.9225187064    0.7375542688    3.8479174814
C       -0.1036296516    0.4059360984    1.8381212625
C        1.1324451846   -1.0753273099    0.1518897454
C       -1.0678670119   -0.0248458384   -0.5354238251
C       -0.0267846908    1.0392137222   -0.6821462979
C        0.1266657569    0.0003028852    0.4236104267
N        0.8558819603    1.0016962434    2.5187008255
O        1.5314506543   -1.3762043802   -0.9593681309
O        0.3375074735    1.2153792076    3.8003895202
O        1.5308239550   -1.7274452141    1.2697423604
H       -2.2013134421   -0.2643897354    2.3639050081
H       -1.4336699084    0.8424192529    4.7959494987
H       -2.0306872726    0.2470898475   -0.1152036463
H       -1.0798639249   -0.8278970532   -1.2639926701
H        0.6724458658    0.9567308916   -1.5067247645
H       -0.2624355792    2.0447350014   -0.3506892514
H        2.1700619347   -2.4034733027    0.9732927571
18   
torsion grid (-135,)
C       -1.2066313950    0.0530878410    2.6889859191
C       -0.9181887404    0.6873166027    3.8590034847
C       -0.1368176619    0.4422227111    1.8232554734
C        1.0602904537   -1.1073064889    0.1807631834
C       -1.0661604366    0.0615769759   -0.5692192779
C        0.0409771813    1.0587558927   -0.6985039169
C        0.1062066706    0.0204716649    0.4161693167
N        0.7153483631    1.2404707431    2.4351015632
O        1.4080733633   -1.4972573396   -0.9197242486
O        0.2203058235    1.4008863165    3.7341260557
O        1.4908740284   -1.6857901568    1.3285706840
H       -2.0386565915   -0.5996448931    2.4664648857
H       -1.3993638472    0.7302124112    4.8273559756
H       -2.0169913991    0.3937805433   -0.1644348331
H       -1.1120017830   -0.7454781313   -1.2921245085
H        0.7497130836    0.9277285143   -1.5085309256
H       -0.1363919547    2.0791431831   -0.3770416415
H        2.0996546633   -2.3998859363    1.0582978528
18   
torsion grid (-120,)
C       -1.0907741091   -0.0913065696    2.7340978900
C       -0.8758913360    0.6427438369    3.8598961643
C       -0.1476921372    0.4418905412    1.7999167952
C        0.9953984260   -1.1678154052    0.1801389606
C       -1.0534378681    0.1181260433   -0.6080472429
C        0.1118607809    1.0490011617   -0.7155800210
C        0.0973072752    0.0069933626    0.3979255619
N        0.5671988211    1.4119659379    2.3335939280
O        1.2983535910   -1.6135267647   -0.9122454294
O        0.1044058594    1.5467753194    3.6478696570
O        1.4429328327   -1.7137203364    1.3387583084
H       -1.7975846953   -0.8940826387    2.5797822745
H       -1.3170000867    0.6467228685    4.8481002885
H       -1.9894455186    0.5030009098   -0.2154501092
H       -1.1324003791   -0.6850413841   -1.3325968547
H        0.8244461616    0.8767679498   -1.5143883776
H       -0.0077336392    2.0771580172   -0.3932862653
H        2.0188011481   -2.4589751866    1.0803921338
18   
torsion grid (-105,)
C       -0.9676908819   -0.2026182657    2.7910332726
C       -0.8641550427    0.6186520442    3.8705948575
C       -0.1688399265    0.4456420531    1.7962022199
C        0.9343763347   -1.2065978822    0.1862274778
C       -1.0401546311    0.1782188782   -0.6283629646
C        0.1691773881    1.0524421471   -0.7077015355
C        0.0873361742    0.0052354465    0.3987387697
N        0.3643156440    1.5599804604    2.2556870461
O        1.2109702407   -1.6766115358   -0.9029229303
O       -0.0798366324    1.6789282048    3.5781333612
O        1.3764900882   -1.7556453799    1.3466888386
H       -1.5118748547   -1.1319901768    2.7038929840
H       -1.2690330513    0.5925398900    4.8738695465
H       -1.9629371800    0.6032375248   -0.2462628917
H       -1.1436125753   -0.6179144029   -1.3576558140
H        0.8867452739    0.8509802183   -1.4950817122
H        0.0935350566    2.0826936394   -0.3798801533
H        1.9219167120   -2.5237696129    1.0890106578
18   
torsion grid (-90,)
C       -0.8283729158   -0.2669224304    2.8452141186
C       -0.8592321019    0.6222145499    3.8738159697
C       -0.1905194278    0.4603066808    1.7894481724
C        0.8838673966   -1.2300074067    0.1881477561
C       -1.0198125246    0.2375795329   -0.6507120762
C        0.2237371620    1.0610680320   -0.7023112941
C        0.0822168133    0.0111896003    0.3984179296
N        0.1279118582    1.6817520796    2.1705281610
O        1.1518932620   -1.7052976080   -0.9009100355
O       -0.3016626709    1.7940171995    3.4982874099
O        1.3009401934   -1.8024514535    1.3479017339
H       -1.1807200953   -1.2877975111    2.8298537605
H       -1.2268481765    0.5781441373    4.8907169084
H       -1.9302264558    0.6960985843   -0.2782023242
H       -1.1431225096   -0.5515493893   -1.3846180332
H        0.9477523841    0.8314100967   -1.4758917992
H        0.1846632988    2.0912336547   -0.3688636416
H        1.8201290627   -2.5870940325    1.0855850344
18   
torsion grid (-75,)
C       -0.6889356468   -0.3280401016    2.8897500219
C       -0.8596572217    0.6014482073    3.8677979337
C       -0.2116925436    0.4366289693    1.7761747146
C        0.8343851892   -1.2873741905    0.1763746321
C       -0.9879435150    0.2712603976   -0.6836455205
C        0.2906235686    1.0350184371   -0.6982682267
C        0.0774631774   -0.0205154808    0.3911556709
N       -0.1142138468    1.7166299220    2.0812681048
O        1.0707021952   -1.7724927207   -0.9158257524
O       -0.5292349494    1.8291535768    3.4130015117
O        1.2594668132   -1.8704876669    1.3289405418
H       -0.8509063504   -1.3939273981    2.9429611665
H       -1.1917507731    0.5516308297    4.8965948872
H       -1.8822889273    0.7672936840   -0.3211195909
H       -1.1316779147   -0.5054354848   -1.4270168703
H        1.0221795660    0.7779567795   -1.4559583286
H        0.2903006541    2.0618447876   -0.3526220923
H        1.7514851527   -2.6686492102    1.0550392324
18   
torsion grid (-60,)
C       -0.5444161758   -0.3318252956    2.9416353288
C       -0.8541802217    0.6093438277    3.8739469676
C       -0.2507425726    0.4372731049    1.7683351606
C        0.7794369993   -1.3087286553    0.1611023555
C       -0.9637769126    0.3313856129   -0.7134831299
C        0.3414439646    1.0414152688   -0.6822387558
C        0.0577296671   -0.0246591606    0.3879312830
N       -0.3855719305    1.7302564046    2.0018474639
O        1.0000220590   -1.7870748761   -0.9375768832
O       -0.7713092977    1.8460416748    3.3411738493
O        1.2008436463   -1.9177310473    1.3024050353
H       -0.5067200996   -1.4031032833    3.0601467825
H       -1.1383264283    0.5612688030    4.9170866079
H       -1.8445631166    0.8566482248   -0.3599635953
H       -1.1190538261   -0.4275730485   -1.4726040264
H        1.0844139758    0.7667269935   -1.4224533518
H        0.3701200618    2.0607609109   -0.3157973752
H        1.6714330870   -2.7225930430    1.0107307853
18   
torsion grid (-45,)
C       -0.3904960832   -0.3254161447    2.9688628087
C       -0.8341603735    0.5878148032    3.8753583943
C       -0.3179574342    0.4185716966    1.7453390187
C        0.7241487124   -1.3107812173    0.1054835446
C       -0.9384132795    0.4071228206   -0.7644365452
C        0.3809897692    1.0775808534   -0.6605291231
C        0.0250465607   -0.0207703749    0.3638174765
N       -0.6985891939    1.6710892488    1.9317814431
O        0.9544074332   -1.7508426258   -1.0073486391
O       -1.0275444546    1.7841624329    3.2850417101
O        1.1185688775   -1.9757423900    1.2255149833
H       -0.1393049324   -1.3602696425    3.1327559231
H       -1.0495412029    0.5417313052    4.9349148051
H       -1.8154441246    0.9449755797   -0.4217042616
H       -1.0841356445   -0.3194467135   -1.5562540686
H        1.1456214114    0.8082353205   -1.3804719456
H        0.4213480565    2.0798778716   -0.2499035039
H        1.5731286408   -2.7784504387    0.9035932973
18   
torsion grid (-30,)
C       -0.1938071529   -0.2262157698    3.0222265627
C       -0.7702628868    0.6461834782    3.8939794524
C       -0.3974358984    0.3877355774    1.7423573962
C        0.6848480968   -1.3422491159    0.1179127425
C       -0.8842763818    0.4200833918   -0.8006063367
C        0.4335083213    1.0742184772   -0.6100099506
C        0.0099316720   -0.0385610481    0.3731032771
N       -1.0443868846    1.5348081144    1.8692223354
O        1.0549837746   -1.7112891270   -0.9830923623
O       -1.2843271246    1.7029796583    3.2347664248
O        0.8617179277   -2.1222790264    1.2190785109
H        0.2969993602   -1.1594898284    3.2407524298
H       -0.8910327100    0.6533880936    4.9694077082
H       -1.7749592898    0.9590359134   -0.4981468361
H       -0.9883394454   -0.2921960398   -1.6114333396
H        1.2365667964    0.8143847354   -1.2907337673
H        0.4555008203    2.0674249930   -0.1757135204
H        1.3030544839   -2.9311326429    0.8939117674
18   
torsion grid (-15,)
C        1.0439692897    0.3405225877    2.6248101962
C        0.4101488199    0.9345319393    3.6724200611
C        0.0747105298    0.3899233335    1.5697057004
C        1.2049035997   -1.0128976972   -0.2978669145
C       -1.1029865825   -0.0544187852   -0.6963162454
C       -0.1402490480    1.0553984220   -0.9200955828
C        0.1886696042   -0.0149061653    0.1412474943
N       -1.0375686426    0.9765313322    1.9768906676
O        1.4025418633   -1.3214780689   -1.4600096194
O       -0.8299266013    1.3248436254    3.3144772824
O        1.9033996266   -1.5886939440    0.7181487636
H        2.0343774899   -0.0837976350    2.5975089438
H        0.6954191684    1.1421936289    4.6954919945
H       -2.0102839404    0.1508600407   -0.1401922356
H       -1.1490701386   -0.8429290516   -1.4389357720
H        0.4719380435    1.0325389085   -1.8150142633
H       -0.3795473326    2.0317243171   -0.5129957232
H        2.5058675214   -2.2275346015    0.2898539915
18   
torsion grid (0,)
C        1.0722198543    0.4835801379    2.5672581634
C        0.4090816282    0.9457563224    3.6613660519
C        0.0419014528    0.3422247391    1.5812448857
C        1.1540700907   -1.0623514560   -0.2776762056
C       -1.1037356487    0.0059675049   -0.7215250148
C       -0.0843311514    1.0762590481   -0.8937723610
C        0.1597877788   -0.0361054806    0.1474933835
N       -1.1329365415    0.7007126867    2.0653754103
O        1.3537289540   -1.3889405061   -1.4343694225
O       -0.9052164532    1.0885032509    3.3900484237
O        1.8338795050   -1.6318350685    0.7537693962
H        2.1218869273    0.2549077423    2.4683587263
H        0.7161756576    1.2069409902    4.6656947084
H       -2.0189733318    0.2392094622   -0.1905870725
H       -1.1642845179   -0.7606039316   -1.4856970666
H        0.5509305430    1.0459567734   -1.7723912986
H       -0.2884864176    2.0554660220   -0.4737714891
H        2.4277449892   -2.2906299456    0.3444117333
18   
torsion grid (15,)
C        1.0729979406    0.6328429895    2.5174232594
C        0.4074768454    0.9489462397    3.6605356881
C        0.0264815834    0.3131232046    1.5932605740
C        1.1040745285   -1.1067688131   -0.2592499218
C       -1.1024270993    0.0689838534   -0.7299806686
C       -0.0285279805    1.0918160061   -0.8704007150
C        0.1405279191   -0.0462689640    0.1550233530
N       -1.1613287139    0.4339525762    2.1538464844
O        1.2958766131   -1.4522519291   -1.4115579476
O       -0.9257318546    0.8445552502    3.4711353590
O        1.7673507639   -1.6737975248    0.7832615217
H        2.1390422863    0.6061785595    2.3482367218
H        0.7225796279    1.2535996932    4.6500373496
H       -2.0157487217    0.3369495091   -0.2124351485
H       -1.1890665005   -0.6803560491   -1.5086529380
H        0.6177079709    1.0429268635   -1.7402020997
H       -0.1924725733    2.0764867929   -0.4447851035
H        2.3472900661   -2.3540814682    0.3895943970
18   
torsion grid (30,)
C        1.0423737886    0.7940282988    2.4683882067
C        0.4008375712    0.9602786385    3.6560967380
C        0.0200650716    0.2946427912    1.5996005932
C        1.0569300038   -1.1503489853   -0.2451894928
C       -1.0918339293    0.1271638979   -0.7399575376
C        0.0320801460    1.1003125389   -0.8580257789
C        0.1317976223   -0.0506669452    0.1573963741
N       -1.1317509887    0.1744316257    2.2294235102
O        1.2438119786   -1.5127501296   -1.3929999568
O       -0.8973398250    0.6044063873    3.5410628624
O        1.6926956231   -1.7254861207    0.8085643047
H        2.0810419080    0.9776797791    2.2349027274
H        0.7110003574    1.3078762196    4.6329056660
H       -1.9992372179    0.4323126983   -0.2323282640
H       -1.2058675383   -0.6091455397   -1.5275928783
H        0.6837609023    1.0270544841   -1.7220551526
H       -0.0917712666    2.0907145583   -0.4315734748
H        2.2534654596   -2.4298709851    0.4299825405
18   
torsion grid (45,)
C        0.9800510010    0.9521503918    2.4247321240
C        0.3902085495    0.9774747441    3.6506676444
C        0.0235348813    0.2737647711    1.6048554182
C        1.0093607455   -1.1983287898   -0.2401154295
C       -1.0751848342    0.1836785635   -0.7461578647
C        0.0967720124    1.1018711827   -0.8463133621
C        0.1304069552   -0.0591422792    0.1586642192
N       -1.0441752613   -0.0744004531    2.2946686261
O        1.1725740101   -1.5784706477   -1.3858115871
O       -0.8175308051    0.3748500964    3.6010458031
O        1.6331876825   -1.7808576048    0.8154157737
H        1.9458462960    1.3410275526    2.1354219415
H        0.6837691416    1.3687014834    4.6160232143
H       -1.9717445673    0.5280869947   -0.2436419193
H       -1.2199204213   -0.5389855476   -1.5413987731
H        0.7500358552    1.0045429627   -1.7067283444
H        0.0171484849    2.0949252373   -0.4152653127
H        2.1670524404   -2.5091848116    0.4434506297
18   
torsion grid (60,)
C        0.8867756434    1.0957752359    2.3869595764
C        0.3752162500    0.9989533274    3.6448483991
C        0.0362432890    0.2463545664    1.6116210653
C        0.9600002066   -1.2509514629   -0.2444589001
C       -1.0521652392    0.2381306445   -0.7473893606
C        0.1660767166    1.0960545621   -0.8317122410
C        0.1352744489   -0.0729428821    0.1609175616
N       -0.9011869645   -0.3080049021    2.3540281960
O        1.0854374733   -1.6447441455   -1.3903843080
O       -0.6907799194    0.1707815624    3.6522359669
O        1.5850733876   -1.8442671849    0.8027834670
H        1.7387792957    1.6689709736    2.0501570199
H        0.6411547230    1.4358090491    4.5985492695
H       -1.9326120872    0.6252795337   -0.2467831258
H       -1.2305782831   -0.4687649011   -1.5500323628
H        0.8160933587    0.9744897295   -1.6913865498
H        0.1330552860    2.0893686226   -0.3951004965
H        2.0855925621   -2.5943893489    0.4279446262
18   
torsion grid (75,)
C        0.7858708099    1.2091837490    2.3670436217
C        0.3754659317    1.0193931305    3.6517816365
C        0.0759182181    0.2061727014    1.6350539582
C        0.9106142036   -1.3124398915   -0.2528877194
C       -1.0236648871    0.2910758034   -0.7165602319
C        0.2416615953    1.0771055411   -0.8008347508
C        0.1500435361   -0.0999267235    0.1793770301
N       -0.6898900814   -0.5185959633    2.4266604617
O        0.9491148514   -1.7278005990   -1.3976776347
O       -0.5029638886   -0.0024262458    3.7136344725
O        1.5950402605   -1.8987704955    0.7587643370
H        1.4921632787    1.9349263432    1.9900274918
H        0.6059043398    1.5032439585    4.5919146044
H       -1.8757896098    0.7265372596   -0.2061507564
H       -1.2492944079   -0.3965329527   -1.5241190205
H        0.8767657643    0.9281152846   -1.6671667068
H        0.2682166021    2.0674198547   -0.3575533995
H        2.0512507233   -2.6672333278    0.3652171503
18   
torsion grid (90,)
C        0.6435089319    1.2901857038    2.3505269161
C        0.3267578735    1.0407770229    3.6517558233
C        0.1331605076    0.1487958474    1.6543424305
C        0.8755715542   -1.4095259124   -0.2512093281
C       -0.9622707155    0.3131088533   -0.6880920008
C        0.3518603206    1.0117519703   -0.7860577206
C        0.1911572398   -0.1562403388    0.1976254734
N       -0.4367692330   -0.7046052667    2.4828512549
O        0.7986115450   -1.8638829162   -1.3793470472
O       -0.3153166495   -0.1396452515    3.7569050232
O        1.6450625355   -1.9724312065    0.7094200385
H        1.1745445655    2.1404015203    1.9477572237
H        0.4880421919    1.5772931808    4.5775963867
H       -1.7765282526    0.8093578641   -0.1709118087
H       -1.2432139924   -0.3601126116   -1.4904127288
H        0.9674303520    0.8184825091   -1.6576421468
H        0.4495650237    2.0015151194   -0.3527773000
H        2.0452709415   -2.7648814672    0.3028375607
18   
torsion grid (105,)
C        0.4612977027    1.3755303513    2.3326884000
C        0.2492274800    1.0852355340    3.6462453952
C        0.1833119866    0.1396233489    1.6637434700
C        0.7977752439   -1.4488275440   -0.2722797940
C       -0.9187106202    0.4088773341   -0.6549059908
C        0.4450595084    1.0026295214   -0.7782497531
C        0.2122584774   -0.1539490862    0.2047640740
N       -0.1671880734   -0.7999728110    2.5206955378
O        0.5707180241   -1.9381503025   -1.3649967878
O       -0.1233138797   -0.2016774151    3.7854510698
O        1.6742403615   -1.9945118665    0.6005677305
H        0.7828851233    2.3162594690    1.9105075032
H        0.3274860214    1.6593726356    4.5602083433
H       -1.6788965336    0.9677564310   -0.1193612223
H       -1.2699320175   -0.2370589601   -1.4518914060
H        1.0247603527    0.7645803702   -1.6633739191
H        0.6354004924    1.9812484578   -0.3514446148
H        1.9993910286   -2.8128585729    0.1786108503
18   
torsion grid (120,)
C        0.2841329138    1.4102180709    2.3078489487
C        0.1891480862    1.1230889293    3.6348738796
C        0.2446104777    0.1217794087    1.6786372791
C        0.7411060639   -1.5096154161   -0.2657658290
C       -0.8560307067    0.4581044886   -0.6201707511
C        0.5439298884    0.9582817671   -0.7658915867
C        0.2462206316   -0.1796003482    0.2225837091
N        0.1297604647   -0.8422669451    2.5712628178
O        0.3818046227   -2.0276860123   -1.3085261180
O        0.0981658917   -0.2075754920    3.8203936782
O        1.7007680098   -2.0456225268    0.5191925312
H        0.3760466772    2.3855227439    1.8524409883
H        0.1814506481    1.7304580422    4.5305377422
H       -1.5693456906    1.0677728871   -0.0755795552
H       -1.2622744581   -0.1625782096   -1.4109360956
H        1.0915036169    0.6804426595   -1.6600703928
H        0.8163993713    1.9191470884   -0.3430967491
H        1.9561508844   -2.8877112079    0.0957803237
18   
torsion grid (135,)
C       -1.1846533531    1.1898892124    2.3966366613
C       -1.2418705385    1.1512530052    3.7550721491
C       -0.1746294374    0.2222873752    2.0713229653
C        1.4918904508   -1.0146681548    0.5125540825
C       -0.8367502568   -0.3816713071   -0.3344917879
C        0.0415614723    0.8218994275   -0.4406453449
C        0.2587764722   -0.1803394130    0.7077450285
N        0.3166264742   -0.3388655698    3.1589222810
O        1.6466996775   -1.7890590155   -0.4156232534
O       -0.3623361190    0.2521178724    4.2354406153
O        2.4625314639   -0.7595960554    1.4148865040
H       -1.7693561445    1.8094723174    1.7317436783
H       -1.8288793360    1.6843571502    4.4915836689
H       -1.8547586469   -0.2543739295    0.0182396431
H       -0.6755508237   -1.1940091956   -1.0341204233
H        0.7996394559    0.8309251799   -1.2166470474
H       -0.3452453726    1.7977209003   -0.1666481327
H        3.2118032242   -1.3388360551    1.1761765745
18   
torsion grid (150,)
C       -1.2447167975    0.9184614783    2.4583520964
C       -0.9989962383    1.0042900637    3.7930039949
C       -0.0909142906    0.2364327212    1.9407720051
C        1.3659300765   -0.8989475553    0.1118847897
C       -1.0532120946   -0.3713346029   -0.3841484226
C       -0.3072395108    0.9176129691   -0.5286210192
C        0.1662402429   -0.0874573717    0.5126071907
N        0.7608644508   -0.0558511250    2.9042370894
O        1.9361109593   -0.7768136879   -0.9583757913
O        0.1856549928    0.4359543107    4.0867245837
O        1.7039639385   -1.8459173552    1.0111629485
H       -2.1106040701    1.2840230118    1.9248516611
H       -1.5490471195    1.4199041676    4.6272583292
H       -2.0203013549   -0.3817415024    0.1076764656
H       -0.9189444107   -1.1261621260   -1.1517451453
H        0.3383192367    1.0383243447   -1.3909879034
H       -0.7579686608    1.8264801153   -0.1446441505
H        2.4730974394   -2.3141638902    0.6327409694
18   
torsion grid (165,)
C       -1.3149877369    0.7716755730    2.5004477678
C       -0.9937758152    0.9790105751    3.8062503642
C       -0.0989936254    0.2688501383    1.9275555767
C        1.3198593317   -0.9337943404    0.1284861107
C       -1.0627860534   -0.3029763956   -0.4163814215
C       -0.2654242821    0.9569038478   -0.5430913012
C        0.1467277329   -0.0730483313    0.5021290957
N        0.8590973204    0.1941435138    2.8305009601
O        1.9052213086   -0.8609870757   -0.9375754703
O        0.2910530224    0.6444027863    4.0310441395
O        1.6112160330   -1.8719959225    1.0547910959
H       -2.2683398161    0.9460942920    2.0227054123
H       -1.5491445199    1.3391052635    4.6624680662
H       -2.0430426080   -0.2742434172    0.0471862239
H       -0.9422601968   -1.0591879341   -1.1847738468
H        0.3999098759    1.0568891089   -1.3932251958
H       -0.6881570102    1.8784417825   -0.1568692342
H        2.3672132918   -2.3774691324    0.6988851680
18   
torsion grid (180,)
C       -1.3185370026    0.5907132391    2.5488994713
C       -0.9566860226    0.9163434941    3.8203870000
C       -0.0707225974    0.3011033782    1.9056115291
C        1.2982333832   -0.9900591496    0.1411966457
C       -1.0327216651   -0.2295645884   -0.4562445842
C       -0.1624375490    0.9810219194   -0.5789176091
C        0.1683779760   -0.0630119140    0.4831895152
N        0.9420851238    0.4512327151    2.7370162653
O        1.8416584047   -1.0287756277   -0.9487090572
O        0.3806506142    0.8401910040    3.9598021335
O        1.6054361902   -1.8499347839    1.1373673793
H       -2.3176138981    0.5507897395    2.1402012637
H       -1.5117888157    1.2031419582    4.7039789333
H       -2.0203471605   -0.1318964938   -0.0190510834
H       -0.9404668522   -0.9989780241   -1.2150732585
H        0.5237513770    1.0346452031   -1.4166759326
H       -0.5391175720    1.9272983913   -0.2050888142
H        2.3299490347   -2.4089075505    0.7965346250
