21   
torsion grid (-90,)
C        2.0602428782   -0.7914318257    0.0184985822
C        2.7081312936   -1.8701780237    2.0731890985
C        0.9030463471   -0.3112019696    0.6219743556
C        1.5537704827   -1.4025234181    2.6859154719
C        2.9976947714   -1.5715044214    0.7251015718
C        0.6231900809   -0.6151382128    1.9727161684
C        4.8752702543   -1.6603863479   -1.0421096536
C        4.2390869937   -2.0529300714    0.1148497696
C       -1.3664900070    0.8673774692    2.0295938384
N       -0.5386946857   -0.1826405873    2.6026330804
H        2.2725863355   -0.5250185342   -1.0137451385
H        3.4083957961   -2.4729038923    2.6481126075
H        0.2238628772    0.3118181214    0.0493535987
H        1.3580034674   -1.6443261412    3.7290204098
H        5.9613385819   -1.7577394331   -0.9039072468
H        4.7412996512   -2.0541771390   -2.0519698250
H        4.9504655452   -2.2638657272    0.9225659012
H       -2.1696406376    1.1022061427    2.7318635560
H       -0.8061068029    1.7901915913    1.8149784787
H       -1.8322749966    0.5239097491    1.1001754376
H       -0.4739806699   -0.1639010477    3.6121385696
21   
torsion grid (-75,)
C        2.0923145343   -0.7768594566    0.0344669987
C        2.7172176313   -1.8614888156    2.0893636977
C        0.9248064629   -0.3064554942    0.6269030903
C        1.5538982197   -1.4023260437    2.6929621637
C        3.0233312359   -1.5575729491    0.7468857979
C        0.6283824724   -0.6167217437    1.9723985871
C        4.8729619801   -1.6732491321   -1.0249830652
C        4.2731434850   -2.0372697045    0.1495333340
C       -1.3682826896    0.8565937399    2.0100293420
N       -0.5450177251   -0.1936492528    2.5889775996
H        2.3126378761   -0.5035424813   -0.9942433975
H        3.4124397717   -2.4648506570    2.6696397996
H        0.2490832070    0.3145294671    0.0480491241
H        1.3473330134   -1.6508892232    3.7324235859
H        5.9566740097   -1.8305338873   -1.0004228237
H        4.5507954593   -1.9692989797   -2.0251598034
H        4.9898057872   -2.2782803741    0.9424498729
H       -2.1818690582    1.0851520072    2.7023410041
H       -0.8084754676    1.7826014469    1.8075372942
H       -1.8202635841    0.5163415582    1.0726038460
H       -0.4917190645   -0.1765937433    3.5991925838
21   
torsion grid (-60,)
C        2.1275449246   -0.7566334667    0.0519794904
C        2.7283262952   -1.8524901048    2.1072479371
C        0.9481933027   -0.2981546631    0.6316165353
C        1.5536951682   -1.4044736794    2.6979375024
C        3.0503898587   -1.5395426659    0.7709559634
C        0.6338831388   -0.6197947648    1.9698032047
C        4.8551763442   -1.7075890453   -1.0192428219
C        4.3087453529   -2.0161950131    0.1870446613
C       -1.3689524169    0.8443661585    1.9900280167
N       -0.5527005727   -0.2098424643    2.5721247954
H        2.3586596494   -0.4727762071   -0.9713628639
H        3.4184047310   -2.4567074795    2.6928209356
H        0.2771728440    0.3227436986    0.0472197884
H        1.3337515273   -1.6623389633    3.7323932727
H        5.9272091645   -1.8955517979   -1.1062411881
H        4.3715025413   -1.9005920067   -1.9778338425
H        5.0364182062   -2.2734036959    0.9627572729
H       -2.1938518235    1.0648689673    2.6715429857
H       -0.8082558352    1.7734756780    1.8044987432
H       -1.8056038051    0.5117267187    1.0426544462
H       -0.5105110389   -0.1954589224    3.5830037967
21   
torsion grid (-45,)
C        2.1489795824   -0.7459307139    0.0618767293
C        2.7408041197   -1.8384122662    2.1190862219
C        0.9623873849   -0.2945951307    0.6329087660
C        1.5593279047   -1.3982384026    2.7029186868
C        3.0704884559   -1.5256498582    0.7850815427
C        0.6406288464   -0.6189957579    1.9684544109
C        4.8479792492   -1.7377818022   -1.0110844159
C        4.3348908489   -2.0034688223    0.2122622518
C       -1.3707501083    0.8330168024    1.9741944173
N       -0.5541040243   -0.2179586849    2.5613536548
H        2.3808871807   -0.4601672697   -0.9606374596
H        3.4299856405   -2.4389974342    2.7094717203
H        0.2910305078    0.3208781047    0.0431273745
H        1.3337579452   -1.6588411404    3.7355052741
H        5.8967736071   -1.9793968685   -1.1810017584
H        4.2603023415   -1.7705452580   -1.9279203717
H        5.0496276660   -2.3183205391    0.9763513061
H       -2.2023537740    1.0483785282    2.6492041001
H       -0.8134147251    1.7653601088    1.7945198416
H       -1.7980340893    0.4997147726    1.0227408181
H       -0.5199970029   -0.2044120870    3.5725355210
21   
torsion grid (-30,)
C        2.1674948077   -0.7314357841    0.0701555292
C        2.7533766368   -1.8217103178    2.1282677539
C        0.9738850382   -0.2896760192    0.6348037269
C        1.5644276092   -1.3918265048    2.7051068772
C        3.0889428489   -1.5076682561    0.7962553952
C        0.6443276984   -0.6181982025    1.9671218380
C        4.8381797086   -1.7796077957   -1.0100794276
C        4.3580949465   -1.9845177436    0.2330405065
C       -1.3756609605    0.8212276649    1.9632306907
N       -0.5590096654   -0.2290577855    2.5520360554
H        2.3989536171   -0.4425577215   -0.9514960509
H        3.4430933015   -2.4178075020    2.7225409099
H        0.3015754887    0.3204545422    0.0406224048
H        1.3342683766   -1.6568394597    3.7355388308
H        5.8594946442   -2.0711741237   -1.2438200813
H        4.1918074368   -1.6535579034   -1.8769514485
H        5.0651100148   -2.3514343867    0.9794671898
H       -2.2136147738    1.0296916014    2.6325607862
H       -0.8212091022    1.7569328119    1.7921127212
H       -1.7939950866    0.4903695617    1.0069673199
H       -0.5303450288   -0.2159703949    3.5634671044
21   
torsion grid (-15,)
C        2.1773311502   -0.7214410594    0.0743587344
C        2.7652866071   -1.8044862176    2.1342198252
C        0.9795666130   -0.2859576414    0.6353846186
C        1.5715849135   -1.3821384966    2.7071969802
C        3.1014781916   -1.4924994498    0.8020819465
C        0.6482095524   -0.6149999777    1.9669929417
C        4.8278619474   -1.8218277821   -1.0128135920
C        4.3739801284   -1.9694672890    0.2449620645
C       -1.3814605426    0.8105615277    1.9564984200
N       -0.5601733920   -0.2346892900    2.5477272387
H        2.4043264071   -0.4348567452   -0.9489305739
H        3.4572859480   -2.3949411175    2.7314984200
H        0.3041469100    0.3173059052    0.0377329013
H        1.3405205201   -1.6484490259    3.7370761516
H        5.8228605410   -2.1640773705   -1.2839234434
H        4.1850766325   -1.5237740447   -1.8379337089
H        5.0562305648   -2.3978909510    0.9803796648
H       -2.2230860669    1.0134046399    2.6229583885
H       -0.8325363703    1.7499494669    1.7875711296
H       -1.7943923294    0.4774046501    0.9986657550
H       -0.5349003693   -0.2214934504    3.5592447695
21   
torsion grid (0,)
C        2.1602584239   -0.7504842931    0.0637029239
C        2.7740273414   -1.7891079163    2.1386341390
C        0.9669042895   -0.3089735973    0.6289680488
C        1.5844163217   -1.3606880509    2.7159607147
C        3.0965736189   -1.5003316869    0.7980177266
C        0.6513586936   -0.6106014884    1.9709783715
C        4.8390774065   -1.8153748356   -1.0057096195
C        4.3678212714   -1.9822161253    0.2422513936
C       -1.3826036171    0.8083283247    1.9539506246
N       -0.5539833646   -0.2255626687    2.5551897944
H        2.3654616911   -0.4968379709   -0.9728102870
H        3.4745408879   -2.3648871448    2.7402715199
H        0.2782351070    0.2712457044    0.0236608106
H        1.3643054483   -1.6096655576    3.7525491822
H        5.8024914733   -2.2242136171   -1.2962027520
H        4.2918027442   -1.2739739309   -1.7736170950
H        4.9872300423   -2.5413448247    0.9444415640
H       -2.2175686955    1.0220954120    2.6253508887
H       -0.8364356658    1.7450271462    1.7627919218
H       -1.8051197359    0.4579574640    1.0064901116
H       -0.5195961253   -0.1947540617    3.5660786495
21   
torsion grid (15,)
C        2.1431152309   -0.7835340835    0.0553974978
C        2.7824919245   -1.7751795540    2.1456061469
C        0.9538435350   -0.3337347494    0.6230326605
C        1.5972214092   -1.3385269839    2.7254216236
C        3.0914402148   -1.5112174370    0.7966220831
C        0.6545539107   -0.6056373252    1.9749985824
C        4.8408065778   -1.7949423577   -1.0044666415
C        4.3596095291   -1.9953746338    0.2357254645
C       -1.3843480465    0.8060053446    1.9505961778
N       -0.5469441434   -0.2143751878    2.5626749497
H        2.3303350765   -0.5681774104   -0.9930841204
H        3.4911041174   -2.3358563338    2.7520265682
H        0.2521962440    0.2222155076    0.0098599654
H        1.3872760239   -1.5681497902    3.7685702114
H        5.7671028289   -2.2674322787   -1.3197078342
H        4.4386688109   -1.0397181047   -1.6758479848
H        4.9064249012   -2.6814860722    0.8838769730
H       -2.2116424480    1.0321692819    2.6273935851
H       -0.8417434746    1.7392632219    1.7343256326
H       -1.8175610102    0.4363452923    1.0153354612
H       -0.5047536551   -0.1670200654    3.5725916293
21   
torsion grid (30,)
C        2.1465180064   -0.7701568283    0.0589359195
C        2.7910961427   -1.7560397122    2.1517729746
C        0.9541425866   -0.3276894926    0.6254666854
C        1.6022015255   -1.3279248874    2.7301406369
C        3.0977248406   -1.4927102445    0.8019540353
C        0.6560486818   -0.6013924365    1.9774686944
C        4.8152625988   -1.8235217986   -1.0256013002
C        4.3652810561   -1.9715822145    0.2366943623
C       -1.3933438325    0.7948193894    1.9503495031
N       -0.5492796099   -0.2197142696    2.5630785533
H        2.3338983498   -0.5601966223   -0.9906163511
H        3.5034950164   -2.3110721874    2.7589130298
H        0.2480451202    0.2213268736    0.0111250775
H        1.3919527126   -1.5589076892    3.7729497662
H        5.7094207217   -2.3563658314   -1.3406736984
H        4.5519253738   -0.9700748230   -1.6480569917
H        4.8775408576   -2.7084780615    0.8581707932
H       -2.2240077878    1.0134380581    2.6254826715
H       -0.8576177657    1.7325958417    1.7366291185
H       -1.8213427915    0.4229406148    1.0135892956
H       -0.5097642463   -0.1736573977    3.5731758561
21   
torsion grid (45,)
C        2.1469847182   -0.7537133059    0.0615616547
C        2.7996770015   -1.7355243133    2.1556486871
C        0.9516872928   -0.3198399758    0.6280808008
C        1.6074940035   -1.3162476181    2.7330820635
C        3.1023125859   -1.4712994831    0.8048223570
C        0.6560147961   -0.5960781767    1.9802756586
C        4.7936866540   -1.8422893028   -1.0483212000
C        4.3683953255   -1.9436528798    0.2321906082
C       -1.4052722135    0.7828042707    1.9541460988
N       -0.5524881384   -0.2253011475    2.5654325751
H        2.3348115361   -0.5480279851   -0.9888190290
H        3.5164005279   -2.2851995256    2.7625706056
H        0.2402441370    0.2219197368    0.0134525104
H        1.3980280754   -1.5493225603    3.7755807810
H        5.6479320236   -2.4488549642   -1.3466139535
H        4.7064617584   -0.9278335421   -1.6347006644
H        4.8375825732   -2.7301333480    0.8284779426
H       -2.2380446509    0.9929151322    2.6293558709
H       -0.8775828220    1.7255120889    1.7424036135
H       -1.8295927355    0.4088671864    1.0165393252
H       -0.5155348921   -0.1830640060    3.5757823256
21   
torsion grid (60,)
C        2.1490091792   -0.7205397839    0.0649546220
C        2.8075163979   -1.7125618546    2.1542838392
C        0.9493898973   -0.3011691361    0.6322378055
C        1.6109798116   -1.3075824711    2.7321685427
C        3.1078597468   -1.4383220447    0.8046139957
C        0.6545162376   -0.5902690282    1.9822681466
C        4.7751160939   -1.8679853485   -1.0738917405
C        4.3732254030   -1.9014271013    0.2245861953
C       -1.4210150291    0.7677376318    1.9629137265
N       -0.5581632553   -0.2358627983    2.5673659066
H        2.3396075135   -0.5086633755   -0.9838140842
H        3.5280631113   -2.2605697808    2.7581446012
H        0.2334994668    0.2380066738    0.0204849565
H        1.4012452191   -1.5499839124    3.7724853504
H        5.5827592922   -2.5571719203   -1.3284423524
H        4.8758245457   -0.9536661855   -1.6603564092
H        4.8060183881   -2.7163769621    0.8126987237
H       -2.2574070604    0.9626819273    2.6381574800
H       -0.9033286308    1.7179517580    1.7606135038
H       -1.8391330050    0.3972129821    1.0211802322
H       -0.5263857667   -0.2058029886    3.5782955901
21   
torsion grid (75,)
C        2.1485517427   -0.6810084374    0.0668949267
C        2.8136541308   -1.6906306878    2.1472110602
C        0.9448655399   -0.2784289006    0.6364090362
C        1.6136286011   -1.3010537592    2.7274470588
C        3.1117083932   -1.4016473504    0.7996491044
C        0.6515500307   -0.5841498710    1.9835518184
C        4.7636724581   -1.8893692019   -1.0998994893
C        4.3764292636   -1.8534557442    0.2117415307
C       -1.4384564409    0.7523245451    1.9756207816
N       -0.5642947282   -0.2472250026    2.5703371897
H        2.3411869157   -0.4584223635   -0.9793933961
H        3.5377953104   -2.2396757529    2.7457642613
H        0.2244235461    0.2602028920    0.0295416232
H        1.4044451617   -1.5559787658    3.7648631578
H        5.5214629805   -2.6581796409   -1.2853202158
H        5.0576939788   -1.0281779257   -1.7029565293
H        4.7786736227   -2.6843087080    0.8019856387
H       -2.2776089921    0.9302694415    2.6520704647
H       -0.9315739343    1.7104773075    1.7842059830
H       -1.8512170529    0.3869700063    1.0295170165
H       -0.5373929707   -0.2328957996    3.5817076102
21   
torsion grid (90,)
C        2.1468684125   -0.6408596401    0.0679276671
C        2.8204250763   -1.6707776260    2.1389878015
C        0.9391174751   -0.2550903301    0.6391235979
C        1.6171060617   -1.2953850929    2.7203093264
C        3.1145164271   -1.3645571071    0.7936545755
C        0.6491398077   -0.5782957390    1.9832208089
C        4.7599723799   -1.8948492739   -1.1220833398
C        4.3787453971   -1.8039413415    0.1983821528
C       -1.4548188681    0.7366589239    1.9888557270
N       -0.5691754349   -0.2591818084    2.5727668091
H        2.3410231363   -0.4071444701   -0.9756999092
H        3.5479843227   -2.2218482927    2.7315670062
H        0.2138778595    0.2830348586    0.0375059204
H        1.4083332504   -1.5630238917    3.7545630964
H        5.4452929056   -2.7461327218   -1.2391078961
H        5.2408096288   -1.1327476859   -1.7392033992
H        4.7531967811   -2.6469401946    0.7917873838
H       -2.2961236595    0.8972270239    2.6669181086
H       -0.9587795517    1.7025192594    1.8087011580
H       -1.8628486618    0.3771839291    1.0384766986
H       -0.5454651889   -0.2602124981    3.5842953378
