23
0 1 C10H10N2O
C                    -2.273331078047    -8.664047006300     9.275288463165
C                    -1.359834234909    -8.892110705158     8.246119122804
C                    -3.454174317677    -7.968705653763     9.010003741084
C                    -1.623836448394    -8.418238360411     6.957300744739
C                    -6.836048079121    -5.958794450848     6.721481519933
C                    -6.657934755996    -5.638676883624     8.091325464581
C                    -5.711602186473    -6.687334651172     6.385303609578
C                    -3.732354993130    -7.490138088963     7.726233861779
C                    -2.801647740737    -7.711127006020     6.685592583920
C                    -2.135460829819    -7.302699149940     4.416979401170
N                    -5.519353444655    -6.132003412501     8.571442073954
N                    -4.937374561480    -6.770020463627     7.513243490011
O                    -3.112077856560    -7.204332557291     5.450536726588
H                    -2.075541893167    -9.026782563990    10.279650219311
H                    -0.439088912844    -9.436895484355     8.435814711583
H                    -4.177894846052    -7.772001430335     9.792199250840
H                    -0.902494952588    -8.596417423220     6.168546231627
H                    -7.659372633425    -5.694685618739     6.071851690795
H                    -7.305259690293    -5.065656325030     8.744186185179
H                    -5.401829118242    -7.141273144398     5.458461986126
H                    -2.564436324775    -6.787740735125     3.556423345934
H                    -1.936243903657    -8.348096572025     4.152597418369
H                    -1.199749037417    -6.810666708056     4.707091615112
