
  -OEChem-12102412493D

 19 19  0     0  0  0  0  0  0999 V2000
    1.8932   -1.0232   -0.1282 C   0  0  0  0  0  0  0  0  0  0  0  0
    2.9257   -1.6279    0.5969 C   0  0  0  0  0  0  0  0  0  0  0  0
    0.8078   -0.4571    0.5493 C   0  0  0  0  0  0  0  0  0  0  0  0
    2.8699   -1.6658    1.9932 C   0  0  0  0  0  0  0  0  0  0  0  0
    0.7574   -0.4979    1.9457 C   0  0  0  0  0  0  0  0  0  0  0  0
    1.7862   -1.1027    2.6802 C   0  0  0  0  0  0  0  0  0  0  0  0
    2.3723    0.0974    6.1062 C   0  0  0  0  0  0  0  0  0  0  0  0
    1.7418   -1.1217    4.1862 C   0  0  0  0  0  0  0  0  0  0  0  0
    2.3797    0.0526    4.6888 O   0  0  0  0  0  0  0  0  0  0  0  0
    1.9330   -0.9952   -1.2143 H   0  0  0  0  0  0  0  0  0  0  0  0
    3.7710   -2.0695    0.0751 H   0  0  0  0  0  0  0  0  0  0  0  0
    0.0028    0.0136   -0.0095 H   0  0  0  0  0  0  0  0  0  0  0  0
    3.6750   -2.1333    2.5559 H   0  0  0  0  0  0  0  0  0  0  0  0
   -0.0855   -0.0545    2.4715 H   0  0  0  0  0  0  0  0  0  0  0  0
    2.8771    1.0202    6.4011 H   0  0  0  0  0  0  0  0  0  0  0  0
    2.9084   -0.7607    6.5408 H   0  0  0  0  0  0  0  0  0  0  0  0
    1.3459    0.1054    6.5053 H   0  0  0  0  0  0  0  0  0  0  0  0
    0.6989   -1.1572    4.5391 H   0  0  0  0  0  0  0  0  0  0  0  0
    2.2539   -2.0167    4.5740 H   0  0  0  0  0  0  0  0  0  0  0  0
  1  2  1  0  0  0  0
  1  3  2  0  0  0  0
  1 10  1  0  0  0  0
  2  4  2  0  0  0  0
  2 11  1  0  0  0  0
  3  5  1  0  0  0  0
  3 12  1  0  0  0  0
  4  6  1  0  0  0  0
  4 13  1  0  0  0  0
  5  6  2  0  0  0  0
  5 14  1  0  0  0  0
  6  8  1  0  0  0  0
  7  9  1  0  0  0  0
  7 15  1  0  0  0  0
  7 16  1  0  0  0  0
  7 17  1  0  0  0  0
  8  9  1  0  0  0  0
  8 18  1  0  0  0  0
  8 19  1  0  0  0  0
M  END
$$$$
