
  -OEChem-12122420533D

 16 16  0     0  0  0  0  0  0999 V2000
    1.3132   -3.9690   -2.9148 C   0  0  0  0  0  0  0  0  0  0  0  0
    0.6200   -4.3128   -4.1130 C   0  0  0  0  0  0  0  0  0  0  0  0
    2.6421   -3.6694   -2.9929 C   0  0  0  0  0  0  0  0  0  0  0  0
    1.2594   -4.3653   -5.3267 C   0  0  0  0  0  0  0  0  0  0  0  0
    2.6941   -4.0786   -5.4308 C   0  0  0  0  0  0  0  0  0  0  0  0
    0.6847   -3.9985   -7.6261 C   0  0  0  0  0  0  0  0  0  0  0  0
    3.2740   -3.7122   -4.2088 N   0  0  0  0  0  0  0  0  0  0  0  0
    3.3870   -4.1353   -6.4537 O   0  0  0  0  0  0  0  0  0  0  0  0
    0.5629   -4.7827   -6.4218 O   0  0  0  0  0  0  0  0  0  0  0  0
    0.8011   -3.9377   -1.9603 H   0  0  0  0  0  0  0  0  0  0  0  0
   -0.4394   -4.5534   -4.0854 H   0  0  0  0  0  0  0  0  0  0  0  0
    3.2525   -3.3964   -2.1392 H   0  0  0  0  0  0  0  0  0  0  0  0
   -0.0229   -4.4408   -8.3294 H   0  0  0  0  0  0  0  0  0  0  0  0
    1.7001   -4.0403   -8.0209 H   0  0  0  0  0  0  0  0  0  0  0  0
    0.4001   -2.9577   -7.4289 H   0  0  0  0  0  0  0  0  0  0  0  0
    4.2694   -3.5223   -4.2739 H   0  0  0  0  0  0  0  0  0  0  0  0
  1  2  1  0  0  0  0
  1  3  2  0  0  0  0
  1 10  1  0  0  0  0
  2  4  2  0  0  0  0
  2 11  1  0  0  0  0
  3  7  1  0  0  0  0
  3 12  1  0  0  0  0
  4  5  1  0  0  0  0
  4  9  1  0  0  0  0
  5  7  1  0  0  0  0
  5  8  2  0  0  0  0
  6  9  1  0  0  0  0
  6 13  1  0  0  0  0
  6 14  1  0  0  0  0
  6 15  1  0  0  0  0
  7 16  1  0  0  0  0
M  END
$$$$
