20
0 1 C7H9N3O
C                    10.306031756470    -6.653636884527    19.260863121730
C                     9.511776308668    -5.507935599651    19.147472574225
C                    11.641711734641    -6.514336635430    19.629348935954
C                    10.111700469490    -4.271340678028    19.398122805292
C                    12.143801141787    -5.218784371524    19.850741287133
C                    13.971775187054    -4.168837052031    21.167815161739
C                    15.999429003330    -3.155691446323    22.083238601514
N                    11.400337085767    -4.116370253449    19.724333033164
N                    13.505669518019    -5.046549921455    20.161971270186
N                    15.357061612814    -4.093881417936    21.165795170615
O                    13.260528984817    -3.590507713575    21.971281727367
H                     9.889347989764    -7.641270512944    19.080255426571
H                     8.463245612443    -5.566746566226    18.871787916548
H                    12.280744054580    -7.384516635509    19.758250424227
H                     9.532226547186    -3.352573468002    19.317736982207
H                    15.810684689963    -2.109476164984    21.812881435406
H                    17.075911802924    -3.344310778616    22.081684789054
H                    15.612442386514    -3.321015593452    23.089566415043
H                    14.092997054559    -5.855422624969    20.000857521533
H                    15.790912793128    -4.189733042973    20.255379848086
