
  -OEChem-12102412493D

 18 18  0     0  0  0  0  0  0999 V2000
    1.4879   -0.3419    1.5063 C   0  0  0  0  0  0  0  0  0  0  0  0
    0.1754   -0.2151    1.0463 C   0  0  0  0  0  0  0  0  0  0  0  0
    1.7291   -1.0783    2.6685 C   0  0  0  0  0  0  0  0  0  0  0  0
   -0.8421   -0.8366    1.7773 C   0  0  0  0  0  0  0  0  0  0  0  0
    0.6399   -1.6610    3.3260 C   0  0  0  0  0  0  0  0  0  0  0  0
    2.3685   -3.2928    6.1476 C   0  0  0  0  0  0  0  0  0  0  0  0
    0.8046   -2.4742    4.5886 C   0  0  0  0  0  0  0  0  0  0  0  0
   -0.6260   -1.5452    2.8923 N   0  0  0  0  0  0  0  0  0  0  0  0
    2.1697   -2.5366    4.9644 O   0  0  0  0  0  0  0  0  0  0  0  0
    2.3107    0.1243    0.9698 H   0  0  0  0  0  0  0  0  0  0  0  0
   -0.0601    0.3478    0.1475 H   0  0  0  0  0  0  0  0  0  0  0  0
    2.7281   -1.2080    3.0687 H   0  0  0  0  0  0  0  0  0  0  0  0
   -1.8790   -0.7615    1.4520 H   0  0  0  0  0  0  0  0  0  0  0  0
    3.4405   -3.2871    6.3569 H   0  0  0  0  0  0  0  0  0  0  0  0
    2.0315   -4.3326    6.0208 H   0  0  0  0  0  0  0  0  0  0  0  0
    1.8322   -2.8514    7.0010 H   0  0  0  0  0  0  0  0  0  0  0  0
    0.2002   -2.0169    5.3878 H   0  0  0  0  0  0  0  0  0  0  0  0
    0.4006   -3.4842    4.4165 H   0  0  0  0  0  0  0  0  0  0  0  0
  1  2  1  0  0  0  0
  1  3  2  0  0  0  0
  1 10  1  0  0  0  0
  2  4  2  0  0  0  0
  2 11  1  0  0  0  0
  3  5  1  0  0  0  0
  3 12  1  0  0  0  0
  4  8  1  0  0  0  0
  4 13  1  0  0  0  0
  5  7  1  0  0  0  0
  5  8  2  0  0  0  0
  6  9  1  0  0  0  0
  6 14  1  0  0  0  0
  6 15  1  0  0  0  0
  6 16  1  0  0  0  0
  7  9  1  0  0  0  0
  7 17  1  0  0  0  0
  7 18  1  0  0  0  0
M  END
$$$$
