
  -OEChem-12102412493D

 23 23  0     0  0  0  0  0  0999 V2000
    5.0858   -8.8337   -0.4096 C   0  0  0  0  0  0  0  0  0  0  0  0
    4.4262  -10.0683   -0.4215 C   0  0  0  0  0  0  0  0  0  0  0  0
    4.3576   -7.6583   -0.2787 C   0  0  0  0  0  0  0  0  0  0  0  0
    3.0410  -10.0451   -0.2981 C   0  0  0  0  0  0  0  0  0  0  0  0
    2.9455   -7.7296   -0.1581 C   0  0  0  0  0  0  0  0  0  0  0  0
    0.7642   -6.4500    0.1128 C   0  0  0  0  0  0  0  0  0  0  0  0
   -1.4044   -7.5324    0.2525 C   0  0  0  0  0  0  0  0  0  0  0  0
    2.9107   -5.2840   -0.0189 C   0  0  0  0  0  0  0  0  0  0  0  0
    2.3209   -8.9232   -0.1709 N   0  0  0  0  0  0  0  0  0  0  0  0
    0.0424   -7.5936    0.1189 N   0  0  0  0  0  0  0  0  0  0  0  0
    2.1905   -6.5610   -0.0255 N   0  0  0  0  0  0  0  0  0  0  0  0
    0.2451   -5.3366    0.2210 O   0  0  0  0  0  0  0  0  0  0  0  0
    6.1677   -8.7838   -0.5022 H   0  0  0  0  0  0  0  0  0  0  0  0
    4.9613  -11.0069   -0.5217 H   0  0  0  0  0  0  0  0  0  0  0  0
    4.8773   -6.7105   -0.2710 H   0  0  0  0  0  0  0  0  0  0  0  0
    2.4680  -10.9711   -0.3003 H   0  0  0  0  0  0  0  0  0  0  0  0
   -1.6953   -7.0538    1.1930 H   0  0  0  0  0  0  0  0  0  0  0  0
   -1.7924   -8.5534    0.2361 H   0  0  0  0  0  0  0  0  0  0  0  0
   -1.8550   -6.9647   -0.5679 H   0  0  0  0  0  0  0  0  0  0  0  0
    3.4578   -5.1406   -0.9567 H   0  0  0  0  0  0  0  0  0  0  0  0
    3.6123   -5.2364    0.8208 H   0  0  0  0  0  0  0  0  0  0  0  0
    2.1756   -4.4915    0.0876 H   0  0  0  0  0  0  0  0  0  0  0  0
    0.5480   -8.4730    0.0194 H   0  0  0  0  0  0  0  0  0  0  0  0
  1  2  1  0  0  0  0
  1  3  2  0  0  0  0
  1 13  1  0  0  0  0
  2  4  2  0  0  0  0
  2 14  1  0  0  0  0
  3  5  1  0  0  0  0
  3 15  1  0  0  0  0
  4  9  1  0  0  0  0
  4 16  1  0  0  0  0
  5  9  2  0  0  0  0
  5 11  1  0  0  0  0
  6 10  1  0  0  0  0
  6 11  1  0  0  0  0
  6 12  2  0  0  0  0
  7 10  1  0  0  0  0
  7 17  1  0  0  0  0
  7 18  1  0  0  0  0
  7 19  1  0  0  0  0
  8 11  1  0  0  0  0
  8 20  1  0  0  0  0
  8 21  1  0  0  0  0
  8 22  1  0  0  0  0
 10 23  1  0  0  0  0
M  END
$$$$
