
  -OEChem-12122420533D

 26 27  0     0  0  0  0  0  0999 V2000
    2.6514   -6.9509    1.5017 C   0  0  0  0  0  0  0  0  0  0  0  0
    2.0585   -7.4957    2.6457 C   0  0  0  0  0  0  0  0  0  0  0  0
    1.4025   -1.4678    0.1562 C   0  0  0  0  0  0  0  0  0  0  0  0
    2.2776   -5.6821    1.0620 C   0  0  0  0  0  0  0  0  0  0  0  0
    1.0967   -6.7606    3.3407 C   0  0  0  0  0  0  0  0  0  0  0  0
    1.8509   -2.7363    0.6240 C   0  0  0  0  0  0  0  0  0  0  0  0
    0.1052   -1.0610    0.3161 C   0  0  0  0  0  0  0  0  0  0  0  0
    1.3161   -4.9185    1.7503 C   0  0  0  0  0  0  0  0  0  0  0  0
    0.7270   -5.4886    2.8998 C   0  0  0  0  0  0  0  0  0  0  0  0
    0.9524   -3.5754    1.2437 C   0  0  0  0  0  0  0  0  0  0  0  0
   -0.8674   -1.9094    0.9810 C   0  0  0  0  0  0  0  0  0  0  0  0
    0.2385   -3.8347    4.5302 C   0  0  0  0  0  0  0  0  0  0  0  0
   -0.3454   -3.1527    1.3867 N   0  0  0  0  0  0  0  0  0  0  0  0
   -2.0501   -1.6366    1.2060 O   0  0  0  0  0  0  0  0  0  0  0  0
   -0.2597   -4.8181    3.6049 O   0  0  0  0  0  0  0  0  0  0  0  0
    3.3896   -7.5194    0.9432 H   0  0  0  0  0  0  0  0  0  0  0  0
    2.3354   -8.4887    2.9890 H   0  0  0  0  0  0  0  0  0  0  0  0
    2.1165   -0.8072   -0.3309 H   0  0  0  0  0  0  0  0  0  0  0  0
    2.7113   -5.2825    0.1505 H   0  0  0  0  0  0  0  0  0  0  0  0
    0.6112   -7.1585    4.2272 H   0  0  0  0  0  0  0  0  0  0  0  0
    2.8887   -3.0293    0.5260 H   0  0  0  0  0  0  0  0  0  0  0  0
   -0.2468   -0.0943   -0.0274 H   0  0  0  0  0  0  0  0  0  0  0  0
   -0.6375   -3.3841    4.9990 H   0  0  0  0  0  0  0  0  0  0  0  0
    0.8155   -3.0611    4.0114 H   0  0  0  0  0  0  0  0  0  0  0  0
    0.8661   -4.3139    5.2904 H   0  0  0  0  0  0  0  0  0  0  0  0
   -0.9973   -3.7427    1.8974 H   0  0  0  0  0  0  0  0  0  0  0  0
  1  2  1  0  0  0  0
  1  4  2  0  0  0  0
  1 16  1  0  0  0  0
  2  5  2  0  0  0  0
  2 17  1  0  0  0  0
  3  6  1  0  0  0  0
  3  7  2  0  0  0  0
  3 18  1  0  0  0  0
  4  8  1  0  0  0  0
  4 19  1  0  0  0  0
  5  9  1  0  0  0  0
  5 20  1  0  0  0  0
  6 10  2  0  0  0  0
  6 21  1  0  0  0  0
  7 11  1  0  0  0  0
  7 22  1  0  0  0  0
  8  9  2  0  0  0  0
  8 10  1  0  0  0  0
  9 15  1  0  0  0  0
 10 13  1  0  0  0  0
 11 13  1  0  0  0  0
 11 14  2  0  0  0  0
 12 15  1  0  0  0  0
 12 23  1  0  0  0  0
 12 24  1  0  0  0  0
 12 25  1  0  0  0  0
 13 26  1  0  0  0  0
M  END
$$$$
