
  -OEChem-12122420533D

 13 13  0     0  0  0  0  0  0999 V2000
   -0.2316   -1.3810   -1.7663 C   0  0  0  0  0  0  0  0  0  0  0  0
    0.0756   -2.7341   -1.7827 C   0  0  0  0  0  0  0  0  0  0  0  0
    0.0879   -0.9714   -0.4405 C   0  0  0  0  0  0  0  0  0  0  0  0
   -0.5208    1.2827   -0.7167 C   0  0  0  0  0  0  0  0  0  0  0  0
    0.5518   -1.9753    0.3028 N   0  0  0  0  0  0  0  0  0  0  0  0
    0.5334   -3.0396   -0.5432 N   0  0  0  0  0  0  0  0  0  0  0  0
   -0.0163    0.2546    0.1312 O   0  0  0  0  0  0  0  0  0  0  0  0
   -0.6225   -0.7943   -2.5845 H   0  0  0  0  0  0  0  0  0  0  0  0
    0.0009   -3.4742   -2.5685 H   0  0  0  0  0  0  0  0  0  0  0  0
   -0.5426    2.1901   -0.1118 H   0  0  0  0  0  0  0  0  0  0  0  0
   -1.5363    1.0509   -1.0621 H   0  0  0  0  0  0  0  0  0  0  0  0
    0.1327    1.4391   -1.5843 H   0  0  0  0  0  0  0  0  0  0  0  0
    0.8481   -3.9350   -0.1982 H   0  0  0  0  0  0  0  0  0  0  0  0
  1  2  2  0  0  0  0
  1  3  1  0  0  0  0
  1  8  1  0  0  0  0
  2  6  1  0  0  0  0
  2  9  1  0  0  0  0
  3  5  2  0  0  0  0
  3  7  1  0  0  0  0
  4  7  1  0  0  0  0
  4 10  1  0  0  0  0
  4 11  1  0  0  0  0
  4 12  1  0  0  0  0
  5  6  1  0  0  0  0
  6 13  1  0  0  0  0
M  END
$$$$
