
  -OEChem-12122420533D

 18 18  0     0  0  0  0  0  0999 V2000
    2.1052   -3.5012   -6.7070 C   0  0  0  0  0  0  0  0  0  0  0  0
    2.9617   -3.9974   -5.7534 C   0  0  0  0  0  0  0  0  0  0  0  0
    1.4728   -2.6455   -4.8492 C   0  0  0  0  0  0  0  0  0  0  0  0
    1.0760   -1.8386   -2.5565 C   0  0  0  0  0  0  0  0  0  0  0  0
    0.3728   -0.9956   -0.3674 C   0  0  0  0  0  0  0  0  0  0  0  0
    1.1702   -2.6523   -6.1330 N   0  0  0  0  0  0  0  0  0  0  0  0
    2.5398   -3.4355   -4.5523 N   0  0  0  0  0  0  0  0  0  0  0  0
    0.7612   -1.9077   -3.9028 N   0  0  0  0  0  0  0  0  0  0  0  0
    0.2613   -1.0037   -1.8232 N   0  0  0  0  0  0  0  0  0  0  0  0
    2.0241   -2.4573   -2.0612 O   0  0  0  0  0  0  0  0  0  0  0  0
    2.1003   -3.7013   -7.7702 H   0  0  0  0  0  0  0  0  0  0  0  0
    3.8026   -4.6734   -5.8044 H   0  0  0  0  0  0  0  0  0  0  0  0
   -0.0572   -1.8950    0.0906 H   0  0  0  0  0  0  0  0  0  0  0  0
   -0.1403   -0.1116    0.0186 H   0  0  0  0  0  0  0  0  0  0  0  0
    1.4268   -0.9417   -0.0940 H   0  0  0  0  0  0  0  0  0  0  0  0
    2.9174   -3.5271   -3.6147 H   0  0  0  0  0  0  0  0  0  0  0  0
    0.0584   -1.3022   -4.3085 H   0  0  0  0  0  0  0  0  0  0  0  0
   -0.6491   -0.7863   -2.2084 H   0  0  0  0  0  0  0  0  0  0  0  0
  1  2  2  0  0  0  0
  1  6  1  0  0  0  0
  1 11  1  0  0  0  0
  2  7  1  0  0  0  0
  2 12  1  0  0  0  0
  3  6  2  0  0  0  0
  3  7  1  0  0  0  0
  3  8  1  0  0  0  0
  4  8  1  0  0  0  0
  4  9  1  0  0  0  0
  4 10  2  0  0  0  0
  5  9  1  0  0  0  0
  5 13  1  0  0  0  0
  5 14  1  0  0  0  0
  5 15  1  0  0  0  0
  7 16  1  0  0  0  0
  8 17  1  0  0  0  0
  9 18  1  0  0  0  0
M  END
$$$$
