
  -OEChem-12102412493D

 25 26  0     0  0  0  0  0  0999 V2000
    0.9597   -0.3651   -6.7710 C   0  0  0  0  0  0  0  0  0  0  0  0
   -0.2108    0.3077   -7.1285 C   0  0  0  0  0  0  0  0  0  0  0  0
    1.3218   -0.4381   -5.4294 C   0  0  0  0  0  0  0  0  0  0  0  0
   -1.0078    0.9002   -6.1478 C   0  0  0  0  0  0  0  0  0  0  0  0
    1.9334   -0.2637   -0.4306 C   0  0  0  0  0  0  0  0  0  0  0  0
    2.5863   -0.7712   -1.5206 C   0  0  0  0  0  0  0  0  0  0  0  0
    0.5437    0.1467   -4.4137 C   0  0  0  0  0  0  0  0  0  0  0  0
   -0.6416    0.8258   -4.7975 C   0  0  0  0  0  0  0  0  0  0  0  0
    0.6952    0.4585   -0.6202 C   0  0  0  0  0  0  0  0  0  0  0  0
    1.0370   -0.0002   -3.0180 C   0  0  0  0  0  0  0  0  0  0  0  0
   -2.5987    2.0990   -4.1566 C   0  0  0  0  0  0  0  0  0  0  0  0
    2.1624   -0.6543   -2.8151 N   0  0  0  0  0  0  0  0  0  0  0  0
    0.3284    0.5352   -1.9829 N   0  0  0  0  0  0  0  0  0  0  0  0
   -0.0199    0.9773    0.2371 O   0  0  0  0  0  0  0  0  0  0  0  0
   -1.4028    1.3972   -3.8074 O   0  0  0  0  0  0  0  0  0  0  0  0
    1.5838   -0.8282   -7.5294 H   0  0  0  0  0  0  0  0  0  0  0  0
   -0.5115    0.3760   -8.1707 H   0  0  0  0  0  0  0  0  0  0  0  0
    2.2248   -0.9536   -5.1238 H   0  0  0  0  0  0  0  0  0  0  0  0
   -1.9123    1.4178   -6.4427 H   0  0  0  0  0  0  0  0  0  0  0  0
    2.3109   -0.3833    0.5786 H   0  0  0  0  0  0  0  0  0  0  0  0
    3.5194   -1.3174   -1.3934 H   0  0  0  0  0  0  0  0  0  0  0  0
   -3.0109    2.4592   -3.2139 H   0  0  0  0  0  0  0  0  0  0  0  0
   -3.3188    1.4305   -4.6402 H   0  0  0  0  0  0  0  0  0  0  0  0
   -2.3774    2.9500   -4.8094 H   0  0  0  0  0  0  0  0  0  0  0  0
   -0.5352    1.0327   -2.1860 H   0  0  0  0  0  0  0  0  0  0  0  0
  1  2  1  0  0  0  0
  1  3  2  0  0  0  0
  1 16  1  0  0  0  0
  2  4  2  0  0  0  0
  2 17  1  0  0  0  0
  3  7  1  0  0  0  0
  3 18  1  0  0  0  0
  4  8  1  0  0  0  0
  4 19  1  0  0  0  0
  5  6  2  0  0  0  0
  5  9  1  0  0  0  0
  5 20  1  0  0  0  0
  6 12  1  0  0  0  0
  6 21  1  0  0  0  0
  7  8  2  0  0  0  0
  7 10  1  0  0  0  0
  8 15  1  0  0  0  0
  9 13  1  0  0  0  0
  9 14  2  0  0  0  0
 10 12  2  0  0  0  0
 10 13  1  0  0  0  0
 11 15  1  0  0  0  0
 11 22  1  0  0  0  0
 11 23  1  0  0  0  0
 11 24  1  0  0  0  0
 13 25  1  0  0  0  0
M  END
$$$$
