
  -OEChem-12102412493D

 17 16  0     0  0  0  0  0  0999 V2000
    0.1056   -0.0861   -2.4110 C   0  0  0  0  0  0  0  0  0  0  0  0
    0.7827   -0.5676   -0.1168 C   0  0  0  0  0  0  0  0  0  0  0  0
   -0.4681    0.7135   -4.6491 C   0  0  0  0  0  0  0  0  0  0  0  0
    1.8830    0.0752   -4.1536 C   0  0  0  0  0  0  0  0  0  0  0  0
    1.1260   -0.4342   -1.5305 N   0  0  0  0  0  0  0  0  0  0  0  0
    0.5012    0.1616   -3.7132 N   0  0  0  0  0  0  0  0  0  0  0  0
   -1.0742   -0.0504   -2.0505 O   0  0  0  0  0  0  0  0  0  0  0  0
    0.4803    0.3844    0.3377 H   0  0  0  0  0  0  0  0  0  0  0  0
    1.6513   -0.9648    0.4154 H   0  0  0  0  0  0  0  0  0  0  0  0
   -0.0468   -1.2678   -0.0138 H   0  0  0  0  0  0  0  0  0  0  0  0
   -0.2029    1.7411   -4.9342 H   0  0  0  0  0  0  0  0  0  0  0  0
   -1.4472    0.7164   -4.1729 H   0  0  0  0  0  0  0  0  0  0  0  0
   -0.5137    0.1011   -5.5580 H   0  0  0  0  0  0  0  0  0  0  0  0
    2.3742   -0.8029   -3.7250 H   0  0  0  0  0  0  0  0  0  0  0  0
    2.4712    0.9733   -3.9048 H   0  0  0  0  0  0  0  0  0  0  0  0
    1.9017   -0.0384   -5.2408 H   0  0  0  0  0  0  0  0  0  0  0  0
    2.0398   -0.0424   -1.7150 H   0  0  0  0  0  0  0  0  0  0  0  0
  1  5  1  0  0  0  0
  1  6  1  0  0  0  0
  1  7  2  0  0  0  0
  2  5  1  0  0  0  0
  2  8  1  0  0  0  0
  2  9  1  0  0  0  0
  2 10  1  0  0  0  0
  3  6  1  0  0  0  0
  3 11  1  0  0  0  0
  3 12  1  0  0  0  0
  3 13  1  0  0  0  0
  4  6  1  0  0  0  0
  4 14  1  0  0  0  0
  4 15  1  0  0  0  0
  4 16  1  0  0  0  0
  5 17  1  0  0  0  0
M  END
$$$$
