
  -OEChem-12102412493D

 23 24  0     0  0  0  0  0  0999 V2000
   -2.2733   -8.6640    9.2753 C   0  0  0  0  0  0  0  0  0  0  0  0
   -1.3598   -8.8921    8.2461 C   0  0  0  0  0  0  0  0  0  0  0  0
   -3.4542   -7.9687    9.0100 C   0  0  0  0  0  0  0  0  0  0  0  0
   -1.6238   -8.4182    6.9573 C   0  0  0  0  0  0  0  0  0  0  0  0
   -6.8360   -5.9588    6.7215 C   0  0  0  0  0  0  0  0  0  0  0  0
   -6.6579   -5.6387    8.0913 C   0  0  0  0  0  0  0  0  0  0  0  0
   -5.7116   -6.6873    6.3853 C   0  0  0  0  0  0  0  0  0  0  0  0
   -3.7324   -7.4901    7.7262 C   0  0  0  0  0  0  0  0  0  0  0  0
   -2.8016   -7.7111    6.6856 C   0  0  0  0  0  0  0  0  0  0  0  0
   -2.1355   -7.3027    4.4170 C   0  0  0  0  0  0  0  0  0  0  0  0
   -5.5194   -6.1320    8.5714 N   0  0  0  0  0  0  0  0  0  0  0  0
   -4.9374   -6.7700    7.5132 N   0  0  0  0  0  0  0  0  0  0  0  0
   -3.1121   -7.2043    5.4505 O   0  0  0  0  0  0  0  0  0  0  0  0
   -2.0755   -9.0268   10.2797 H   0  0  0  0  0  0  0  0  0  0  0  0
   -0.4391   -9.4369    8.4358 H   0  0  0  0  0  0  0  0  0  0  0  0
   -4.1779   -7.7720    9.7922 H   0  0  0  0  0  0  0  0  0  0  0  0
   -0.9025   -8.5964    6.1685 H   0  0  0  0  0  0  0  0  0  0  0  0
   -7.6594   -5.6947    6.0719 H   0  0  0  0  0  0  0  0  0  0  0  0
   -7.3053   -5.0657    8.7442 H   0  0  0  0  0  0  0  0  0  0  0  0
   -5.4018   -7.1413    5.4585 H   0  0  0  0  0  0  0  0  0  0  0  0
   -2.5644   -6.7877    3.5564 H   0  0  0  0  0  0  0  0  0  0  0  0
   -1.9362   -8.3481    4.1526 H   0  0  0  0  0  0  0  0  0  0  0  0
   -1.1997   -6.8107    4.7071 H   0  0  0  0  0  0  0  0  0  0  0  0
  1  2  1  0  0  0  0
  1  3  2  0  0  0  0
  1 14  1  0  0  0  0
  2  4  2  0  0  0  0
  2 15  1  0  0  0  0
  3  8  1  0  0  0  0
  3 16  1  0  0  0  0
  4  9  1  0  0  0  0
  4 17  1  0  0  0  0
  5  6  1  0  0  0  0
  5  7  2  0  0  0  0
  5 18  1  0  0  0  0
  6 11  2  0  0  0  0
  6 19  1  0  0  0  0
  7 12  1  0  0  0  0
  7 20  1  0  0  0  0
  8  9  2  0  0  0  0
  8 12  1  0  0  0  0
  9 13  1  0  0  0  0
 10 13  1  0  0  0  0
 10 21  1  0  0  0  0
 10 22  1  0  0  0  0
 10 23  1  0  0  0  0
 11 12  1  0  0  0  0
M  END
$$$$
