
  -OEChem-12102412493D

 19 19  0     0  0  0  0  0  0999 V2000
    4.4335    5.4220   -7.0397 C   0  0  0  0  0  0  0  0  0  0  0  0
    5.8077    2.4285   -5.1073 C   0  0  0  0  0  0  0  0  0  0  0  0
    5.7897    2.3217   -7.1887 C   0  0  0  0  0  0  0  0  0  0  0  0
    5.7026    3.5106   -6.2001 C   0  0  0  0  0  0  0  0  0  0  0  0
    3.0279    7.2796   -7.7902 C   0  0  0  0  0  0  0  0  0  0  0  0
    4.5152    4.3358   -6.1675 N   0  0  0  0  0  0  0  0  0  0  0  0
    3.1793    6.0104   -7.0826 N   0  0  0  0  0  0  0  0  0  0  0  0
    5.3864    5.8161   -7.7079 O   0  0  0  0  0  0  0  0  0  0  0  0
    6.0631    1.3992   -6.0968 O   0  0  0  0  0  0  0  0  0  0  0  0
    6.6302    2.5236   -4.3906 H   0  0  0  0  0  0  0  0  0  0  0  0
    4.8698    2.2448   -4.5635 H   0  0  0  0  0  0  0  0  0  0  0  0
    4.8424    2.0864   -7.6927 H   0  0  0  0  0  0  0  0  0  0  0  0
    6.6041    2.3436   -7.9192 H   0  0  0  0  0  0  0  0  0  0  0  0
    6.5673    4.1690   -6.2587 H   0  0  0  0  0  0  0  0  0  0  0  0
    3.5090    8.1148   -7.2658 H   0  0  0  0  0  0  0  0  0  0  0  0
    1.9621    7.4911   -7.9085 H   0  0  0  0  0  0  0  0  0  0  0  0
    3.4834    7.1905   -8.7769 H   0  0  0  0  0  0  0  0  0  0  0  0
    3.6464    3.8351   -6.0121 H   0  0  0  0  0  0  0  0  0  0  0  0
    2.6166    5.9035   -6.2470 H   0  0  0  0  0  0  0  0  0  0  0  0
  1  6  1  0  0  0  0
  1  7  1  0  0  0  0
  1  8  2  0  0  0  0
  2  4  1  0  0  0  0
  2  9  1  0  0  0  0
  2 10  1  0  0  0  0
  2 11  1  0  0  0  0
  3  4  1  0  0  0  0
  3  9  1  0  0  0  0
  3 12  1  0  0  0  0
  3 13  1  0  0  0  0
  4  6  1  0  0  0  0
  4 14  1  0  0  0  0
  5  7  1  0  0  0  0
  5 15  1  0  0  0  0
  5 16  1  0  0  0  0
  5 17  1  0  0  0  0
  6 18  1  0  0  0  0
  7 19  1  0  0  0  0
M  END
$$$$
