20
0 1 C7H9N3O
C                    -8.099275378485    -8.373429100032     7.329662258146
C                    -7.632441889697    -7.502856953181     6.331976019594
C                    -9.413200833899    -8.813143484464     7.290398505054
C                    -8.528588885384    -7.121197097669     5.339961534138
C                   -10.247428830624    -8.367031030049     6.238518492802
C                   -12.626046392950    -8.549504307713     5.301435237116
C                   -13.400782668369    -7.409336364341     3.294986461856
N                    -9.805668779390    -7.534968802186     5.282661379083
N                   -11.562708900321    -8.807515330280     6.198908181556
N                   -12.361908593681    -7.721039437112     4.264245099563
O                   -13.714731939646    -9.086266374097     5.513188688904
H                    -7.440820662091    -8.703574115014     8.128917811452
H                    -6.611396684254    -7.135717217612     6.326282914199
H                    -9.802762257685    -9.487186131618     8.048693593795
H                    -8.218495241599    -6.447921064248     4.542734507584
H                   -13.758466599863    -8.314345728905     2.793806048864
H                   -12.981882236537    -6.730523385720     2.549093418938
H                   -14.257678844056    -6.927086990888     3.775796240459
H                   -11.861841156781    -9.432750566266     6.936697261792
H                   -11.420158836388    -7.339864572513     4.194895865177
