
  -OEChem-12102412493D

 20 20  0     0  0  0  0  0  0999 V2000
    2.0038   -0.8753   -0.1400 C   0  0  0  0  0  0  0  0  0  0  0  0
    0.9355   -0.2598    0.5139 C   0  0  0  0  0  0  0  0  0  0  0  0
    2.9009   -1.6431    0.6006 C   0  0  0  0  0  0  0  0  0  0  0  0
    0.7696   -0.4130    1.8926 C   0  0  0  0  0  0  0  0  0  0  0  0
    2.7659   -1.8170    1.9855 C   0  0  0  0  0  0  0  0  0  0  0  0
    1.6758   -1.1860    2.6319 C   0  0  0  0  0  0  0  0  0  0  0  0
    3.8267   -2.6803    2.6319 C   0  0  0  0  0  0  0  0  0  0  0  0
    0.4507   -0.7303    4.6626 C   0  0  0  0  0  0  0  0  0  0  0  0
    3.7765   -2.8591    3.9832 N   0  0  0  0  0  0  0  0  0  0  0  0
    4.7154   -3.1979    1.9507 O   0  0  0  0  0  0  0  0  0  0  0  0
    1.5413   -1.3598    3.9910 O   0  0  0  0  0  0  0  0  0  0  0  0
    2.1365   -0.7593   -1.2117 H   0  0  0  0  0  0  0  0  0  0  0  0
    0.2225    0.3438   -0.0420 H   0  0  0  0  0  0  0  0  0  0  0  0
    3.7426   -2.1378    0.1271 H   0  0  0  0  0  0  0  0  0  0  0  0
   -0.0676    0.0730    2.3788 H   0  0  0  0  0  0  0  0  0  0  0  0
    0.5524   -1.0054    5.7131 H   0  0  0  0  0  0  0  0  0  0  0  0
   -0.5109   -1.0934    4.2832 H   0  0  0  0  0  0  0  0  0  0  0  0
    0.5020    0.3599    4.5657 H   0  0  0  0  0  0  0  0  0  0  0  0
    4.4791   -3.4626    4.3891 H   0  0  0  0  0  0  0  0  0  0  0  0
    3.0309   -2.4721    4.5445 H   0  0  0  0  0  0  0  0  0  0  0  0
  1  2  1  0  0  0  0
  1  3  2  0  0  0  0
  1 12  1  0  0  0  0
  2  4  2  0  0  0  0
  2 13  1  0  0  0  0
  3  5  1  0  0  0  0
  3 14  1  0  0  0  0
  4  6  1  0  0  0  0
  4 15  1  0  0  0  0
  5  6  2  0  0  0  0
  5  7  1  0  0  0  0
  6 11  1  0  0  0  0
  7  9  1  0  0  0  0
  7 10  2  0  0  0  0
  8 11  1  0  0  0  0
  8 16  1  0  0  0  0
  8 17  1  0  0  0  0
  8 18  1  0  0  0  0
  9 19  1  0  0  0  0
  9 20  1  0  0  0  0
M  END
$$$$
