18
0 1 C7H9NO
C                     1.487902999340    -0.341926981532     1.506342883052
C                     0.175376947768    -0.215061195654     1.046299579269
C                     1.729124726584    -1.078313133606     2.668494117780
C                    -0.842054882220    -0.836579930130     1.777338093998
C                     0.639906642401    -1.660958647772     3.325996653868
C                     2.368530301668    -3.292824434277     6.147564238805
C                     0.804596792899    -2.474224421736     4.588619791611
N                    -0.625989160050    -1.545227231958     2.892306719142
O                     2.169690324309    -2.536574334992     4.964351253665
H                     2.310728841166     0.124338980572     0.969817237170
H                    -0.060093353460     0.347782226824     0.147471216197
H                     2.728083514616    -1.207961481427     3.068723034453
H                    -1.879011991296    -0.761525070016     1.452008962058
H                     3.440491371957    -3.287125920691     6.356888200977
H                     2.031488207885    -4.332606010840     6.020779702796
H                     1.832167129065    -2.851449983894     7.001004114707
H                     0.200225257461    -2.016923425386     5.387794253801
H                     0.400571749420    -3.484240298792     4.416473915223
