21
0 1 C8H10N2O
C                     1.900814092375    -1.123207332219    -0.138032419876
C                     2.919504062348    -1.765018187062     0.572335464610
C                     0.895888153946    -0.457269298635     0.571497591874
C                     2.953332191800    -1.754118787555     1.969509607694
C                     0.913603064879    -0.438331131078     1.965756688208
C                     1.940272418635    -1.085298796673     2.677702034084
C                     2.803547190584    -1.504443771878     5.007801856847
C                     3.212342052227    -1.887613756272     7.388081818797
N                     1.875939773623    -1.033985736704     4.086195812173
N                     2.408914227662    -1.290337037283     6.323947808630
O                     3.875372219996    -2.026635933327     4.715259311897
H                     1.889657623871    -1.139477531157    -1.224267447453
H                     3.708976917648    -2.284409953296     0.034772139261
H                     0.093959911761     0.049868702523     0.041132134944
H                     3.750462918685    -2.243715109232     2.511528721576
H                     0.124920736830     0.081073383035     2.508232265060
H                     3.141795046391    -2.982506588691     7.406577027986
H                     2.875902500783    -1.485313105527     8.346850248566
H                     4.257953388907    -1.617077257298     7.238259462961
H                     1.128240262585    -0.460577889184     4.454838850238
H                     1.410741669962    -1.269437786610     6.494564632759
