19
0 1 C8H10O
C                     1.893168174903    -1.023207735741    -0.128215949780
C                     2.925741019038    -1.627859322342     0.596883037602
C                     0.807814386135    -0.457056945112     0.549324939744
C                     2.869947738425    -1.665768212437     1.993167972469
C                     0.757355365267    -0.497915982281     1.945728950066
C                     1.786178650191    -1.102667186493     2.680233152184
C                     2.372259334095     0.097412375010     6.106180189050
C                     1.741825826323    -1.121732965133     4.186189106151
O                     2.379653135668     0.052613682301     4.688766038969
H                     1.933032332458    -0.995210181340    -1.214256277186
H                     3.771013917836    -2.069506807000     0.075109233072
H                     0.002825726928     0.013569035033    -0.009505366814
H                     3.674979562617    -2.133346915032     2.555921122607
H                    -0.085497844277    -0.054537791806     2.471477997304
H                     2.877074152046     1.020193664060     6.401052463128
H                     2.908398294313    -0.760670485863     6.540836565407
H                     1.345943941683     0.105394251218     6.505295256487
H                     0.698903313135    -1.157201993739     4.539062552211
H                     2.253858917767    -2.016656577194     4.573993370550
