
  -OEChem-12102412493D

 23 23  0     0  0  0  0  0  0999 V2000
    1.3000   -6.3735    0.0717 C   0  0  0  0  0  0  0  0  0  0  0  0
    2.5792   -6.9246   -0.0658 C   0  0  0  0  0  0  0  0  0  0  0  0
    1.1417   -4.9955    0.1819 C   0  0  0  0  0  0  0  0  0  0  0  0
    3.6566   -6.0425   -0.0833 C   0  0  0  0  0  0  0  0  0  0  0  0
    2.2998   -4.1900    0.1357 C   0  0  0  0  0  0  0  0  0  0  0  0
    1.1394   -2.0196   -0.0885 C   0  0  0  0  0  0  0  0  0  0  0  0
    0.2689    0.1636   -0.7343 C   0  0  0  0  0  0  0  0  0  0  0  0
    3.5434   -2.0989    0.5311 C   0  0  0  0  0  0  0  0  0  0  0  0
    3.5284   -4.7121    0.0083 N   0  0  0  0  0  0  0  0  0  0  0  0
    1.3759   -0.6676   -0.2684 N   0  0  0  0  0  0  0  0  0  0  0  0
    2.2731   -2.7751    0.2423 N   0  0  0  0  0  0  0  0  0  0  0  0
    0.0032   -2.4830   -0.1848 O   0  0  0  0  0  0  0  0  0  0  0  0
    0.4225   -7.0146    0.1047 H   0  0  0  0  0  0  0  0  0  0  0  0
    2.7369   -7.9956   -0.1502 H   0  0  0  0  0  0  0  0  0  0  0  0
    0.1682   -4.5441    0.2963 H   0  0  0  0  0  0  0  0  0  0  0  0
    4.6766   -6.4121   -0.1807 H   0  0  0  0  0  0  0  0  0  0  0  0
   -0.0520   -0.0974   -1.7500 H   0  0  0  0  0  0  0  0  0  0  0  0
    0.5879    1.2085   -0.7098 H   0  0  0  0  0  0  0  0  0  0  0  0
   -0.5844    0.0367   -0.0670 H   0  0  0  0  0  0  0  0  0  0  0  0
    4.0925   -1.8333   -0.3818 H   0  0  0  0  0  0  0  0  0  0  0  0
    4.1782   -2.7714    1.1028 H   0  0  0  0  0  0  0  0  0  0  0  0
    3.3447   -1.2033    1.1221 H   0  0  0  0  0  0  0  0  0  0  0  0
    2.2970   -0.3891   -0.5775 H   0  0  0  0  0  0  0  0  0  0  0  0
  1  2  1  0  0  0  0
  1  3  2  0  0  0  0
  1 13  1  0  0  0  0
  2  4  2  0  0  0  0
  2 14  1  0  0  0  0
  3  5  1  0  0  0  0
  3 15  1  0  0  0  0
  4  9  1  0  0  0  0
  4 16  1  0  0  0  0
  5  9  2  0  0  0  0
  5 11  1  0  0  0  0
  6 10  1  0  0  0  0
  6 11  1  0  0  0  0
  6 12  2  0  0  0  0
  7 10  1  0  0  0  0
  7 17  1  0  0  0  0
  7 18  1  0  0  0  0
  7 19  1  0  0  0  0
  8 11  1  0  0  0  0
  8 20  1  0  0  0  0
  8 21  1  0  0  0  0
  8 22  1  0  0  0  0
 10 23  1  0  0  0  0
M  END
$$$$
