20
0 1 C7H9NO2S
C                     1.823724535303    -1.037711170726    -0.157557762466
C                     2.891017400035    -1.607274191261     0.544780831535
C                     0.747334971441    -0.468626087172     0.533799626523
C                     2.884885776069    -1.618747499328     1.942790720063
C                     0.729006632994    -0.475376938435     1.930446465684
C                     1.797710696928    -1.058210717977     2.618217133872
C                     1.504160693821    -3.812333291553     4.360770806406
N                     0.921661237857    -2.538684746626     4.800267667254
O                     3.121725900133    -1.309765953201     4.883914925907
O                     0.887406194691    -0.035991390013     4.881581169740
S                     1.748643771964    -1.123187064732     4.416257375908
H                     1.834856873326    -1.027150714514    -1.244169421339
H                     3.732488044156    -2.034768355160     0.006536767330
H                    -0.072029696878    -0.011029751729    -0.013722829806
H                     3.714659624711    -2.033115253179     2.506601594902
H                    -0.084357716101    -0.015755320096     2.483975480237
H                     2.528907282182    -3.869736228697     4.730452831007
H                     1.501694966149    -3.940363145583     3.269748698904
H                     0.928792514616    -4.620843058877     4.817989081775
H                    -0.068441441465    -2.426841529160     4.590895306535
