28   
torsion grid (-165,)
H       -0.0993064478    1.9131056409   -1.4639952716
C        0.4936698862    0.9938526466   -1.4567845513
C        0.2818239535    0.2313618977   -0.1549840952
O        0.8960180355    1.0345504674    0.8631094036
C        1.1607532941    0.4207460016    2.0463405585
C        2.2295253051    1.1775650194    2.7871753297
O        0.5896516021   -0.5879044468    2.4189244023
O       -0.0323375483    0.1033072187   -2.4870901887
C       -0.5518066894    0.6566230135   -3.5959823586
C       -0.9081707907   -0.4145137521   -4.6038189850
O       -0.7068616452    1.8531198748   -3.7768428735
C        1.9435394639    1.3772681172   -1.7510540735
O        2.8272073830    0.2739329501   -1.8550769525
P        3.9549466257   -0.0246111973   -0.6439752180
O        4.9349572277   -0.9927910744   -1.2346866075
O        3.0334433997   -0.9127832199    0.4459406838
O        4.2628959406    1.2773681454    0.0397935875
H        0.7787134194   -0.7378933437   -0.1899726822
H       -0.7851572245    0.0949755628    0.0507078831
H        1.9277426258    2.2218152846    2.9219731228
H        3.1327228378    1.1713240265    2.1648659956
H        2.4104448024    0.7086350673    3.7553836542
H       -1.4577978240   -1.2285466519   -4.1238497557
H        0.0161498112   -0.8375684746   -5.0100127790
H       -1.4968202293    0.0219778740   -5.4113802553
H        2.2794333261    2.0720737327   -0.9748789148
H        1.9553311580    1.9055164376   -2.7124614746
H        3.2408823446   -1.8465895302    0.2840349654
28   
torsion grid (-150,)
H       -0.0512444932    1.9310782793   -1.5283396065
C        0.5135748168    0.9948960844   -1.5165235506
C        0.2925776930    0.2386210067   -0.2124622026
O        0.9024930908    1.0430933557    0.8063237560
C        1.1100671621    0.4469998328    2.0093113837
C        2.1475221107    1.2103946151    2.7864541790
O        0.5174628838   -0.5540038016    2.3697319590
O       -0.0446518320    0.1120637989   -2.5394784343
C       -0.5397307964    0.6733127675   -3.6550361558
C       -0.9439853651   -0.3938895663   -4.6494007994
O       -0.6414549849    1.8730309682   -3.8521627931
C        1.9809935506    1.3065289171   -1.8073401438
O        2.7959003976    0.1495665807   -1.7497752361
P        3.9643793244   -0.0045905443   -0.5485345067
O        5.0626598516   -0.8361123685   -1.1385155482
O        3.1381397774   -0.9777081138    0.5391320534
O        4.1285236655    1.3297401582    0.1233422721
H        0.7894338620   -0.7318476512   -0.2441419612
H       -0.7751133177    0.1017537207   -0.0118661889
H        1.8255645021    2.2485762324    2.9230442660
H        3.0663367301    1.2255350874    2.1875011732
H        2.3063039399    0.7342558414    3.7549996300
H       -1.5273779058   -1.1774831316   -4.1587883601
H       -0.0400076813   -0.8616153442   -5.0525449893
H       -1.5147127554    0.0578396156   -5.4614365144
H        2.3249732665    2.0565438031   -1.0885302471
H        2.0476461665    1.7310438598   -2.8168644562
H        3.4129554961   -1.8922618812    0.3681776701
28   
torsion grid (-135,)
H        0.1408698979    1.7466764789   -1.7732285186
C        0.5708576290    0.7419040559   -1.7827582297
C        0.2634219832   -0.0075412060   -0.4917012182
O        0.9825032400    0.6821050729    0.5396052535
C        1.1401688233    0.0206171817    1.7159542201
C        2.2446857588    0.6532353371    2.5168807627
O        0.4623083372   -0.9391642870    2.0364170346
O       -0.1157982364   -0.0373635654   -2.8135039795
C       -0.5458940490    0.6088573956   -3.9098639690
C       -1.1144465791   -0.3711951830   -4.9137531694
O       -0.4800968515    1.8142593357   -4.0860939515
C        2.0681824644    0.8375892613   -2.0768182034
O        2.6905135585   -0.4230977438   -1.9244871461
P        3.9590865603   -0.6201003432   -0.8331507301
O        5.0218869929   -1.4097182099   -1.5363843149
O        3.2006006737   -1.6301932465    0.2623334972
O        4.1777995551    0.6885074571   -0.1261601974
H        0.6240961388   -1.0348988861   -0.5565783496
H       -0.8111439201   -0.0069576066   -0.2807941021
H        2.0169747538    1.7089519487    2.7007788512
H        3.1584218519    0.6130947296    1.9109199420
H        2.3637487367    0.1219959234    3.4620941334
H       -1.7771615322   -1.0880490031   -4.4220879822
H       -0.2905255639   -0.9376247016   -5.3597770297
H       -1.6473638399    0.1716008764   -5.6951979893
H        2.5092369267    1.5685427296   -1.3920959482
H        2.2018871892    1.1901225149   -3.1076796309
H        3.4234985196   -2.5426272907    0.0195089394
28   
torsion grid (-120,)
H        0.2397337366    1.6058925556   -1.8874659629
C        0.6096935543    0.5777857945   -1.8906307865
C        0.3235725411   -0.1270076386   -0.5694424052
O        1.1471959877    0.5210559537    0.4102570125
C        1.4156654642   -0.1865171330    1.5404712905
C        2.5951804966    0.4093497162    2.2564922432
O        0.7722555802   -1.1628710029    1.8807213409
O       -0.1686120243   -0.1822579575   -2.8693499797
C       -0.6168915555    0.4660948975   -3.9576706436
C       -1.2829657710   -0.5006475384   -4.9132285356
O       -0.4971996068    1.6628491782   -4.1612881932
C        2.0948681344    0.5757597318   -2.2497612375
O        2.6421834084   -0.7103644275   -2.0412136839
P        4.0950929102   -0.8789257334   -1.2016431572
O        5.0807871545   -1.5396643419   -2.1195308046
O        3.5851793379   -2.0065313909   -0.0847517351
O        4.3464161837    0.4014957989   -0.4535474629
H        0.5999873491   -1.1792158230   -0.6396895664
H       -0.7340565784   -0.0430358742   -0.2971803567
H        2.4169821268    1.4709991835    2.4584263863
H        3.4577943487    0.3436237098    1.5798311331
H        2.7719902225   -0.1316141277    3.1869812564
H       -1.9595956975   -1.1707463698   -4.3765718839
H       -0.5121138887   -1.1196104857   -5.3836207372
H       -1.8217724753    0.0551964880   -5.6813236300
H        2.6016391541    1.3135407411   -1.6197114758
H        2.2059099719    0.8711588901   -3.3017475046
H        3.8215851912   -2.8814181624   -0.4311410501
28   
torsion grid (-105,)
H        0.1425250385    1.8038595088   -1.1831752415
C        0.7555241830    0.9217229547   -1.3863788844
C        0.7271599486   -0.0198502549   -0.1901310772
O       -0.5891950086   -0.0058722189    0.4410389768
C       -1.5083389923   -0.9022308340    0.0455578807
C       -2.8483876071   -0.6025696238    0.6779040779
O       -1.3122597527   -1.8147013261   -0.7406651414
O        0.1904197014    0.2455213318   -2.5556986797
C       -1.1126493282    0.4053346113   -2.8289382779
C       -1.5400077524   -0.5259039363   -3.9385009010
O       -1.8680467552    1.1707520250   -2.2467322288
C        2.1779307824    1.3533378652   -1.7342736661
O        3.0773619019    0.2613509863   -1.7549251433
P        4.2476514201    0.1812873633   -0.5352782680
O        5.5756427659    0.5739863484   -1.1175616475
O        4.2469042293   -1.4714763147   -0.3524262030
O        3.6396635464    0.8046804748    0.6917486749
H        1.4316660590    0.3300924767    0.5662624384
H        0.9911521088   -1.0332253431   -0.4892486303
H       -3.3158757700    0.1952982963    0.0911364470
H       -2.7327216718   -0.2479550071    1.7046659260
H       -3.4799462516   -1.4915318034    0.6430259554
H       -1.6984294920   -1.5120518921   -3.4896538064
H       -0.7595802154   -0.6207864861   -4.6969036643
H       -2.4735911763   -0.1737731936   -4.3800330509
H        2.4817165252    2.1014712099   -0.9941861076
H        2.1660863078    1.8204139476   -2.7275850250
H        5.0037426325   -1.7994844575   -0.8635186366
28   
torsion grid (-90,)
H        0.2401706076    1.7463462005   -1.1462647430
C        0.8211714729    0.8414230609   -1.3425506834
C        0.7381421062   -0.1020280306   -0.1501555585
O       -0.5801837682   -0.0229274371    0.4722332001
C       -1.5395954735   -0.8721612590    0.0689137686
C       -2.8676801274   -0.5066261830    0.6914766148
O       -1.3831189779   -1.7930187059   -0.7167001747
O        0.2470109069    0.1910518684   -2.5225024509
C       -1.0458562547    0.4014184674   -2.8111020806
C       -1.4954938727   -0.5099932329   -3.9282221958
O       -1.7777518229    1.1944314608   -2.2361221247
C        2.2646784222    1.2159766505   -1.6666991786
O        3.1203615015    0.0881221623   -1.6435292981
P        4.3184250091    0.0850955619   -0.4475265039
O        5.5525235908    0.7429777388   -0.9987607395
O        4.5738942210   -1.5546263253   -0.4331989551
O        3.6529483767    0.4938501086    0.8379275537
H        1.4580985491    0.2024974523    0.6117876948
H        0.9482556103   -1.1260557122   -0.4551314274
H       -3.2895156359    0.3149820531    0.1028831071
H       -2.7422975104   -0.1603202591    1.7199379761
H       -3.5430927396   -1.3623991647    0.6494736801
H       -1.6969332765   -1.4904328096   -3.4841946017
H       -0.7106777788   -0.6325485857   -4.6781152240
H       -2.4097791968   -0.1212396842   -4.3792764598
H        2.5772270337    1.9691714544   -0.9345168631
H        2.2938834592    1.6698345703   -2.6657970407
H        5.3449855882   -1.7112490483   -1.0012452354
28   
torsion grid (-75,)
H        0.4246300764    1.7295015765   -2.0032390026
C        0.7856582172    0.6983811760   -1.9586315934
C        0.3740342193    0.0385701311   -0.6504947361
O        0.9086723903    0.8739942276    0.3902948763
C        0.9882207367    0.2985401358    1.6175670528
C        1.9884643413    1.0162398147    2.4807094875
O        0.3343930455   -0.6758227195    1.9413279420
O        0.1033253862   -0.0739908856   -2.9926045215
C       -0.2142801087    0.5506917466   -4.1382922396
C       -0.7893588086   -0.4330641497   -5.1344650041
O       -0.0552019098    1.7404236472   -4.3570225478
C        2.2945301623    0.6839529188   -2.1923754833
O        2.7997900899   -0.6384600012   -2.1526975822
P        4.0258820398   -0.9371747147   -1.0306808016
O        5.3034097572   -0.3360523092   -1.5495323983
O        4.0885215686   -2.5782672563   -1.2599629104
O        3.4738826073   -0.6583122673    0.3387064409
H        0.8052694081   -0.9599394425   -0.5699119416
H       -0.7162021181   -0.0205551438   -0.5700607165
H        1.9366405601    2.0984384639    2.3319588781
H        2.9682311638    0.6642027245    2.1374050564
H        1.8319348585    0.7590235502    3.5297257527
H       -1.5479962080   -1.0618897893   -4.6610497567
H        0.0121492586   -1.0924615545   -5.4824756979
H       -1.2129175343    0.1070688274   -5.9818407118
H        2.7477727818    1.3222133217   -1.4256932279
H        2.5086348852    1.1270278997   -3.1727295188
H        4.7852911782   -2.7308943041   -1.9180182585
28   
torsion grid (-60,)
H        0.4704011213    1.7441702059   -2.0445198936
C        0.8314457823    0.7142004257   -1.9725899420
C        0.4348194192    0.0959785504   -0.6400613092
O        1.0393980636    0.9253385614    0.3676263677
C        1.0470614535    0.4003703325    1.6203861561
C        2.1407563475    1.0139310904    2.4501717001
O        0.2689706029   -0.4595378748    1.9893407661
O        0.1293132811   -0.0890276401   -2.9699544432
C       -0.1986740459    0.4950504958   -4.1333952092
C       -0.8052099988   -0.5181037978   -5.0805104594
O       -0.0264146168    1.6729650162   -4.4017862540
C        2.3353729525    0.7009493811   -2.2393367208
O        2.8763147092   -0.6071882796   -2.1780086922
P        3.9605096299   -0.9209667024   -0.9188575757
O        5.1230769021    0.0239829132   -1.0678927860
O        4.4197455771   -2.4243890262   -1.4445490329
O        3.1846054900   -1.0853016926    0.3561314588
H        0.8334270291   -0.9154864075   -0.5465123346
H       -0.6537120743    0.0848919308   -0.5256664158
H        2.2578693787    2.0785019258    2.2304545148
H        3.0566800960    0.4949601149    2.1446633467
H        1.9449486266    0.8519551704    3.5116644554
H       -1.5711966351   -1.1096501924   -4.5721068633
H       -0.0221811851   -1.2091485790   -5.4085632373
H       -1.2278520646   -0.0056877480   -5.9453895151
H        2.8120683955    1.3761090255   -1.5201843364
H        2.5137524080    1.1088267891   -3.2417127327
H        5.1614255072   -2.2858609278   -2.0552108307
28   
torsion grid (-45,)
H        0.5508576420    1.8424249292   -2.1222900328
C        0.8444669291    0.7955948695   -1.9998767539
C        0.3774052194    0.2567563275   -0.6536325344
O        1.1542038409    0.9645698504    0.3273225201
C        1.1047726393    0.4719665741    1.5947446266
C        2.3147351724    0.9181562385    2.3711946111
O        0.1861268913   -0.2069236640    2.0119683590
O        0.1124398940   -0.0004598955   -2.9813187671
C       -0.1552171228    0.5539761559   -4.1736616879
C       -0.8106721419   -0.4564988143   -5.0906919972
O        0.0996920964    1.7058223774   -4.4874271054
C        2.3527151164    0.7005175983   -2.2367660811
O        2.8704251502   -0.6131298217   -2.1255783852
P        3.6143653283   -1.0656850027   -0.6756194829
O        4.5296340510    0.0612779674   -0.2631657499
O        4.5283080414   -2.2966501069   -1.3056716710
O        2.5936595546   -1.6682263158    0.2414957443
H        0.5931412794   -0.8094961126   -0.5618806562
H       -0.6917346309    0.4430352660   -0.5085674177
H        2.4077674781    2.0088009507    2.3334267096
H        3.1991903692    0.4930001729    1.8854674711
H        2.2334572742    0.5793845018    3.4049839082
H       -1.6256466519   -0.9715273049   -4.5752319421
H       -0.0708817192   -1.2133500145   -5.3703070720
H       -1.1794921102    0.0446543633   -5.9862814112
H        2.8527855944    1.3792432914   -1.5372039110
H        2.5536696403    1.0531329100   -3.2553876873
H        5.3282163513   -1.8875642677   -1.6737926548
28   
torsion grid (-30,)
H        0.7070377605    1.7777931884   -2.2690483785
C        0.9089887008    0.7075984551   -2.1689658063
C        0.4237638876    0.1802311416   -0.8241483230
O        1.2624284947    0.8115239216    0.1560502038
C        1.1658583273    0.3334323558    1.4256768976
C        2.3868862365    0.7194323015    2.2166197115
O        0.2040127194   -0.2905347279    1.8322120492
O        0.0883755088   -0.0040031989   -3.1475312042
C       -0.1399862957    0.5874414260   -4.3301650225
C       -0.9134847029   -0.3390778410   -5.2441426332
O        0.2287341115    1.7094442671   -4.6387077441
C        2.3974915155    0.4631317155   -2.4248730647
O        2.7596030338   -0.8897093716   -2.2201176632
P        3.5908033690   -1.3126339485   -0.8099169452
O        4.4187034523   -0.1216639837   -0.3892112010
O        4.5950338776   -2.4535825036   -1.4747149944
O        2.6342243193   -2.0087344442    0.1076393190
H        0.5616771665   -0.9011520200   -0.7581188747
H       -0.6276561124    0.4360934099   -0.6584285917
H        2.4885614794    1.8102296163    2.2385981919
H        3.2652995574    0.3152724709    1.7024488909
H        2.3034295929    0.3282919198    3.2314351575
H       -1.7704581176   -0.7693565673   -4.7191452341
H       -0.2634752940   -1.1676561147   -5.5428830889
H       -1.2412502366    0.2073045595   -6.1291784904
H        2.9754653737    1.1236086365   -1.7701394432
H        2.6144552000    0.7277938880   -3.4669720631
H        5.3573366677   -1.9738151396   -1.8374386431
28   
torsion grid (-15,)
H        0.7218298129    1.8087814670   -2.2579683480
C        0.8901826588    0.7366203461   -2.1275803704
C        0.3811226545    0.2530392051   -0.7747350042
O        1.2313969976    0.8735944099    0.2007864976
C        1.1188404949    0.4151557499    1.4759947755
C        2.3204137448    0.8285989652    2.2820383648
O        0.1592513143   -0.2191182703    1.8729849055
O        0.0531605053    0.0247918536   -3.0936376100
C       -0.1569594159    0.5984788167   -4.2888145745
C       -0.9536293552   -0.3244846188   -5.1863749177
O        0.2428419473    1.7035354278   -4.6184709514
C        2.3715824292    0.4269676745   -2.3556703133
O        2.6661642646   -0.9098793511   -2.0020260621
P        3.6450586327   -1.2295548837   -0.6639405996
O        4.3451631861    0.0541168877   -0.2814730550
O        4.7604711314   -2.2287500338   -1.3858497006
O        2.8300211073   -2.0410734047    0.2920030534
H        0.4806899553   -0.8311957267   -0.6955142249
H       -0.6631388128    0.5428681799   -0.6199326143
H        2.3923084436    1.9217066497    2.3090007612
H        3.2154288442    0.4506484790    1.7766016000
H        2.2340245547    0.4315365237    3.2941679523
H       -1.8229964761   -0.7210535613   -4.6552456744
H       -0.3261133924   -1.1761296849   -5.4679486895
H       -1.2647828508    0.2132439958   -6.0826131251
H        2.9689745175    1.1248433880   -1.7603457783
H        2.6007802338    0.5815037911   -3.4179229433
H        5.4718143297   -1.6527127443   -1.7096927833
28   
torsion grid (0,)
H        0.7850895740    1.7992723703   -2.4724220239
C        0.9822619932    0.7293092066   -2.3682164088
C        0.5312839211    0.2086431671   -1.0087766190
O        1.3981389464    0.8340555801   -0.0503774895
C        1.3981214593    0.3047565771    1.2016860386
C        2.6225634131    0.7517529437    1.9523959112
O        0.5161361826   -0.4256486486    1.6143286944
O        0.1316363847    0.0150150430   -3.3192635746
C       -0.1332234303    0.6069436218   -4.4951620647
C       -0.9286217889   -0.3215367078   -5.3877176831
O        0.2226933499    1.7304425220   -4.8118784733
C        2.4621993663    0.4598337664   -2.6445999338
O        2.7869813172   -0.8766457023   -2.3206837630
P        3.9646438123   -1.2155768725   -1.1651046889
O        4.5044968950    0.0975176048   -0.6415470094
O        5.1510329063   -1.8655655622   -2.1404390988
O        3.4008667652   -2.2956715913   -0.3024177467
H        0.6569961082   -0.8741423068   -0.9587889394
H       -0.5139213037    0.4685744190   -0.8122626417
H        2.6543856035    1.8457126611    1.9997745294
H        3.5012700468    0.4232221503    1.3835274029
H        2.6109070244    0.3284103728    2.9574955438
H       -1.7638791198   -0.7625922156   -4.8373446228
H       -0.2813779107   -1.1423994328   -5.7127392598
H       -1.2899431060    0.2263737825   -6.2585857412
H        3.0566369267    1.1576936075   -2.0461964549
H        2.6596570946    0.6456700026   -3.7088878533
H        5.7827458935   -1.1462095189   -2.3006616149
28   
torsion grid (15,)
H        0.8647183961    1.7954814676   -2.3744259938
C        1.0156889384    0.7196401176   -2.2514958989
C        0.5275818596    0.2493875874   -0.8873021838
O        1.3522925143    0.9347531258    0.0702366311
C        1.4274689315    0.3836853496    1.3106321254
C        2.6430942775    0.8914092049    2.0339804990
O        0.6226643464   -0.4288707550    1.7273074485
O        0.1535340159    0.0232005814   -3.2013716866
C       -0.0522958925    0.5941725682   -4.3998912672
C       -0.8540851958   -0.3265704440   -5.2938080921
O        0.3568673925    1.6948499875   -4.7314720177
C        2.4862143146    0.3902374613   -2.4998917545
O        2.7287882979   -0.9834882869   -2.2710079332
P        3.9374940399   -1.4703792490   -1.2101439368
O        4.3447272229   -0.2733417618   -0.3753040346
O        5.1987895452   -1.7075174316   -2.2839737702
O        3.4946887377   -2.7871021711   -0.6699161653
H        0.6603626384   -0.8287388716   -0.7865209554
H       -0.5262630828    0.5046298026   -0.7355539838
H        2.7117540092    1.9809723794    1.9566519635
H        3.5096005557    0.4631452718    1.5101993943
H        2.6125766539    0.5781832454    3.0785540313
H       -1.7131277791   -0.7353787720   -4.7554161632
H       -0.2216417277   -1.1697686185   -5.5894266440
H       -1.1798911476    0.2155753325   -6.1821396044
H        3.0870202444    1.0106391329   -1.8267178747
H        2.7338090448    0.6459224744   -3.5387822152
H        5.8020943875   -0.9614809479   -2.1394867489
28   
torsion grid (30,)
H        1.0085932176    1.6755288922   -2.4390984391
C        1.1149080931    0.5995857151   -2.2784264130
C        0.5639524114    0.1880588843   -0.9189309973
O        1.3902552980    0.8541479545    0.0508104782
C        1.4652296641    0.2797980777    1.2815844308
C        2.6731185813    0.7804231708    2.0214326361
O        0.6656419788   -0.5479538724    1.6782087490
O        0.2620774563   -0.0941662821   -3.2382530091
C        0.0995470699    0.4617563773   -4.4512413247
C       -0.6973634086   -0.4567949658   -5.3515066511
O        0.5398047220    1.5484052178   -4.7884209988
C        2.5789605159    0.2112404620   -2.4614365552
O        2.7624893499   -1.1585429966   -2.1577752431
P        4.0773461717   -1.6167209724   -1.2230638720
O        4.4157514768   -0.4790037358   -0.2806455793
O        5.2845410184   -1.5792558126   -2.3866477028
O        3.8078750976   -3.0239057679   -0.8131409956
H        0.6384673315   -0.8921200041   -0.7915273206
H       -0.4797185990    0.4995062832   -0.8053053936
H        2.7593240680    1.8677555633    1.9339647926
H        3.5416705028    0.3307504059    1.5184112018
H        2.6201300136    0.4774687244    3.0681974196
H       -1.5813875715   -0.8349594732   -4.8314091130
H       -0.0770623595   -1.3200626396   -5.6128522371
H       -0.9841183085    0.0760011869   -6.2587243168
H        3.1745310265    0.8424735329   -1.7933897397
H        2.8747752236    0.4127256270   -3.4996627953
H        5.8723297340   -0.8554489819   -2.1189933831
28   
torsion grid (45,)
H        1.1319712460    1.5179773586   -2.3861079635
C        1.0210742983    0.4349947001   -2.2888056446
C        0.4147011588    0.0589091403   -0.9422884633
O        1.3788043784    0.4593191351    0.0463761353
C        1.3749313676   -0.2376426926    1.2152964583
C        2.6715359261   -0.0439962006    1.9483094281
O        0.4445745271   -0.9396232713    1.5668344272
O        0.0356267091   -0.0153020960   -3.2660088124
C       -0.0225144770    0.6323039791   -4.4431096213
C       -0.9860597236   -0.0607029427   -5.3811409431
O        0.6185138027    1.6311507256   -4.7246191152
C        2.3733710588   -0.2279120357   -2.5268514743
O        2.2784603665   -1.6194395878   -2.2843949191
P        3.5942099833   -2.3804028423   -1.5798831908
O        4.0850183174   -1.5279934525   -0.4279421605
O        4.7279456052   -2.1497340517   -2.7965676747
O        3.2221520335   -3.8200195870   -1.4796222785
H        0.2534767920   -1.0175294517   -0.8888672894
H       -0.5338294659    0.5806914411   -0.7768233165
H        2.9762337611    1.0066794938    1.9314985189
H        3.4198426506   -0.6256351862    1.3899063282
H        2.5766915359   -0.4056384539    2.9733443407
H       -1.9186551761   -0.3052174167   -4.8660434598
H       -0.5378106420   -1.0029084737   -5.7123879854
H       -1.1792950847    0.5756687597   -6.2453491086
H        3.0910221918    0.2412541305   -1.8445295508
H        2.6936811382   -0.0401643647   -3.5596283955
H        5.4237213417   -1.6049492150   -2.3966139451
28   
torsion grid (60,)
H        1.0351983636    1.8416242754   -2.4509482720
C        0.9609071660    0.7598427881   -2.3150180212
C        0.3307199814    0.4070234733   -0.9727169178
O        1.2695728085    0.8297592864    0.0306889835
C        1.2510532848    0.1402430916    1.2047034266
C        2.5260275775    0.3596372535    1.9668962030
O        0.3244390953   -0.5751821037    1.5390565412
O        0.0192217625    0.2382343676   -3.2999851540
C       -0.0374954713    0.8464890802   -4.4983489234
C       -0.9491547643    0.0848928849   -5.4350069905
O        0.5685536247    1.8620044963   -4.7967408594
C        2.3418391979    0.1381970214   -2.4936151461
O        2.2960226223   -1.2327564371   -2.1481359896
P        3.6907002449   -1.9295946106   -1.5316444811
O        4.0730562699   -1.1981735069   -0.2625230027
O        4.7921325468   -1.4131540572   -2.6887823683
O        3.4835721942   -3.4027135102   -1.6277514247
H        0.1749763000   -0.6690016019   -0.9032633088
H       -0.6244928290    0.9251962797   -0.8363145330
H        2.8220163681    1.4124940953    1.9387458378
H        3.2942495112   -0.2265367142    1.4402158706
H        2.4073205845    0.0156525200    2.9955844976
H       -1.8830903639   -0.1817625399   -4.9334871730
H       -0.4551863921   -0.8479063793   -5.7253627559
H       -1.1473905057    0.6851053668   -6.3235854146
H        3.0296306523    0.6885402008   -1.8405275166
H        2.6716807356    0.2664624565   -3.5316885961
H        5.4281311637   -0.8592795515   -2.2096433424
28   
torsion grid (75,)
H        1.0965448747    1.7285733835   -2.5116044736
C        1.0139922280    0.6533109033   -2.3352837538
C        0.3909578634    0.3520696593   -0.9771706852
O        1.3541218258    0.7638060191    0.0076937259
C        1.2943183487    0.1242177293    1.2082878363
C        2.5782494613    0.2984456151    1.9666223719
O        0.3269384782   -0.5226637161    1.5664417175
O        0.0591929237    0.1053702401   -3.2928249722
C       -0.0099391456    0.6768670751   -4.5086751188
C       -0.9352361183   -0.1100481141   -5.4102643028
O        0.5958986384    1.6804509240   -4.8452920137
C        2.3883144132    0.0125991985   -2.5031953565
O        2.3376453437   -1.3327798390   -2.0767673629
P        3.7346735459   -2.0670633127   -1.5024685486
O        4.0125788181   -1.5420623759   -0.1111926414
O        4.8708758634   -1.3369567260   -2.4987972108
O        3.6036268933   -3.5138828301   -1.8395127299
H        0.2029345287   -0.7168138709   -0.8827892917
H       -0.5464008471    0.9018293630   -0.8409778339
H        2.9441534490    1.3263100806    1.8865527452
H        3.3060365332   -0.3661258390    1.4764488555
H        2.4339344764    0.0165124227    3.0108710323
H       -1.8630154112   -0.3595193881   -4.8889038037
H       -0.4469140820   -1.0522434455   -5.6790794293
H       -1.1437742376    0.4638335654   -6.3137424250
H        3.0903854509    0.6010170169   -1.9003922175
H        2.7013586617    0.0817246449   -3.5518979805
H        5.4494190635   -0.8333620465   -1.9050538212
28   
torsion grid (90,)
H        0.4555656138    2.3360009171   -0.9573278958
C        1.2164684471    1.5505662220   -0.9636736336
C        1.0054649016    0.5741676187    0.1798240378
O       -0.3448067801    0.0298972174    0.1760835941
C       -1.3106275304    0.7737705545    0.7444050444
C       -2.6614248709    0.1113129593    0.5790379921
O       -1.1292403946    1.8405953364    1.3068216368
O        1.0820648271    0.7634476959   -2.1699193789
C        0.8741839428    1.4212452504   -3.3280806565
C        1.0100151961    0.4796321512   -4.4966745960
O        0.6148026831    2.6118502904   -3.4036079420
C        2.6079703410    2.1857617519   -0.8779489060
O        3.5965525891    1.1922423259   -0.7330237201
P        4.6660468799    0.7527426546   -1.9630764010
O        5.8948515732    1.6146863205   -1.8601152048
O        3.8273295692    1.3285535485   -3.3115084844
O        4.6567857473   -0.7412011303   -1.9815670061
H        1.1930742107    1.0668860492    1.1348776056
H        1.6650295065   -0.2831031761    0.0587627642
H       -2.6029538296   -0.9514893603    0.8276688170
H       -2.9699657184    0.1882773814   -0.4686456149
H       -3.3952677862    0.6132094437    1.2103311484
H        0.4737360443   -0.4540897024   -4.3059287862
H        2.0746950452    0.2468834296   -4.5935171591
H        0.6401822450    0.9597987162   -5.4040331846
H        2.6256766697    2.8362120079    0.0089253694
H        2.7657092472    2.8120453644   -1.7593091102
H        4.3669891301    2.0610552330   -3.6494464868
28   
torsion grid (105,)
H        0.3830281784    2.2725920752   -0.9428411719
C        1.1868728752    1.5318996552   -0.9071315603
C        0.9557578903    0.5179683496    0.1996424692
O       -0.3699780593   -0.0785543538    0.1076386837
C       -1.3946114915    0.6126447713    0.6361043041
C       -2.7059322925   -0.1011326816    0.3859267087
O       -1.2894514645    1.6746270801    1.2270508795
O        1.1811162941    0.7624206474   -2.1322985543
C        1.0387924263    1.4287729480   -3.2940547080
C        1.3008113576    0.5084845811   -4.4583641187
O        0.7417253715    2.6105456471   -3.3763018901
C        2.5295966180    2.2444429596   -0.7049869658
O        3.5566947235    1.3246634876   -0.4149672870
P        4.6246212254    0.6896528909   -1.5599472182
O        5.9561923989    1.3636808373   -1.3774900452
O        3.9827566135    1.3517740003   -2.9753081329
O        4.3915479848   -0.7873090594   -1.5670585071
H        1.0713909738    0.9905493249    1.1758300398
H        1.6561002350   -0.3082926912    0.0916269010
H       -2.6177068642   -1.1641938529    0.6245946105
H       -2.9580640547   -0.0219494492   -0.6765871734
H       -3.4941429598    0.3613243920    0.9807936613
H        0.7658207897   -0.4367242432   -4.3307532229
H        2.3733041487    0.2925428158   -4.4570282229
H        1.0079167042    0.9960720974   -5.3895404847
H        2.4209205703    2.9159810117    0.1583517094
H        2.7465058623    2.8528920850   -1.5864682632
H        4.6305750237    2.0191761273   -3.2531580509
28   
torsion grid (120,)
H        0.3361262611    2.1970060382   -1.2118759505
C        1.1695084017    1.4905416895   -1.2584889594
C        1.0749635569    0.4401517849   -0.1646472647
O       -0.2424121920   -0.1846369981   -0.1406348104
C       -1.2250585862    0.4736362209    0.4947569827
C       -2.5350719439   -0.2765407686    0.3752130892
O       -1.0908792918    1.5354878475    1.0811866166
O        1.0845906454    0.7468300448   -2.4984611838
C        0.8886063749    1.4338447934   -3.6367017107
C        1.0736833502    0.5288112478   -4.8283231586
O        0.6083035232    2.6223394289   -3.6868447391
C        2.4939795929    2.2596220156   -1.1386833281
O        3.5721140098    1.4174174386   -0.7932588621
P        4.4462909755    0.4969622788   -1.9057383938
O        5.8789081450    0.9425407594   -1.8337592735
O        3.8618918673    1.1342635915   -3.3574113993
O        3.9556916818   -0.9104983533   -1.7660340676
H        1.2789848561    0.8873778349    0.8086568830
H        1.7795682143   -0.3648226711   -0.3712442438
H       -2.3946484640   -1.3345755552    0.6116350196
H       -2.8900869791   -0.2149089609   -0.6586545485
H       -3.2749914006    0.1694867556    1.0405423073
H        0.5083290795   -0.3983248607   -4.6980978554
H        2.1359570946    0.2704005156   -4.8696410581
H        0.7647499044    1.0446612404   -5.7388130203
H        2.3765741417    2.9826128560   -0.3209060976
H        2.6770236776    2.8117039285   -2.0637486088
H        4.5871245235    1.6887050483   -3.6880562830
28   
torsion grid (135,)
H        0.5723782580    1.9677358861   -1.2896289411
C        1.3980660988    1.2543919457   -1.3621726412
C        1.3061356890    0.1844587767   -0.2881342198
O       -0.0283652925   -0.4041997280   -0.2418443387
C       -0.9760898850    0.2676312277    0.4299507650
C       -2.3085853807   -0.4457925999    0.3320284105
O       -0.7998215673    1.3151228539    1.0314536386
O        1.2873742671    0.5442137370   -2.6201018938
C        1.0834679666    1.2601362022   -3.7374363294
C        1.2697383247    0.3868602827   -4.9525635503
O        0.8033946668    2.4501539158   -3.7575451074
C        2.7228640154    2.0246326900   -1.2513556384
O        3.8343767022    1.2222574355   -0.9045643942
P        4.5628769982    0.1431567900   -1.9779570491
O        6.0445878448    0.3396354926   -1.8440963732
O        4.1331246877    0.8497235820   -3.4498383521
O        3.8405959002   -1.1639438625   -1.8552960335
H        1.5459461082    0.6080874012    0.6875868104
H        1.9842480976   -0.6331410143   -0.5341770192
H       -2.1914522327   -1.5096462473    0.5548255417
H       -2.6846940668   -0.3641481391   -0.6929597841
H       -3.0213348968    0.0125694317    1.0183723571
H        0.7195008595   -0.5514089715   -4.8400293523
H        2.3351475383    0.1428445356   -5.0070261534
H        0.9477326962    0.9201140902   -5.8484357778
H        2.6023306733    2.7533120938   -0.4399326077
H        2.8945860292    2.5722683400   -2.1819931129
H        4.9268586211    1.3308947377   -3.7349488346
28   
torsion grid (150,)
H        0.4817510903    2.0015202606   -1.2865211741
C        1.4204026189    1.4402892619   -1.2704949591
C        1.4164631020    0.3965644823   -0.1686959034
O        0.1868727861   -0.3902427651   -0.1942118574
C       -0.9000705797    0.1433603296    0.3840168839
C       -2.0982554685   -0.7677610251    0.2147196338
O       -0.9313459286    1.2191882575    0.9601253532
O        1.5359202365    0.7052511148   -2.5131814985
C        1.2945650508    1.3553505899   -3.6620490634
C        1.7691376407    0.5284307353   -4.8304934179
O        0.7880067481    2.4658886068   -3.7407420030
C        2.5620980671    2.4520733305   -1.0946113605
O        3.8079824912    1.9414834997   -0.6557572816
P        4.7336665305    0.8688222916   -1.5691235013
O        6.1586881264    1.1487511853   -1.1965438885
O        4.4761553921    1.5049322829   -3.1087359162
O        4.0845407267   -0.4809026264   -1.5207356744
H        1.5139631011    0.8783771996    0.8048314330
H        2.2287565930   -0.3097290244   -0.3411583961
H       -1.8374799044   -1.7975265567    0.4729332567
H       -2.4081628242   -0.7605257961   -0.8353845347
H       -2.9197781353   -0.4131135372    0.8380681127
H        1.4349825034   -0.5077345464   -4.7306688546
H        2.8633322325    0.5267369614   -4.7924204888
H        1.4152598819    0.9640123987   -5.7663173402
H        2.2375669650    3.1595941550   -0.3216083888
H        2.6767846186    3.0052656748   -2.0322487579
H        5.2270377734    2.0981576251   -3.2735084207
28   
torsion grid (165,)
H       -0.1686839453    1.9048373419   -1.5233457336
C        0.4323671881    0.9985169394   -1.6396655894
C        0.3575021409    0.1463044886   -0.3809746060
O        0.7403650183    1.0197991945    0.7019427833
C        1.3064691808    0.4371757839    1.7826332042
C        1.9952176853    1.4630636945    2.6450637234
O        1.2729212964   -0.7599182357    2.0055411834
O       -0.1666829490    0.1729684277   -2.6786628968
C       -0.7215105849    0.7962743887   -3.7335157282
C       -1.1226779798   -0.2096587205   -4.7891172087
O       -0.8707846581    2.0024966445   -3.8326206892
C        1.8599843163    1.3871733351   -2.0159223529
O        2.6364356364    0.2352678851   -2.2837338824
P        4.1194740836    0.0710560371   -1.4989300705
O        4.5115018978   -1.3646436422   -1.6810863570
O        3.6099493312    0.2053174199    0.1095393356
O        4.9397850221    1.2868503157   -1.7970717026
H        1.0438480367   -0.6974521134   -0.4428295433
H       -0.6602152470   -0.2193975033   -0.2124025134
H        1.4394212407    2.4037251894    2.6660614318
H        2.9716770102    1.6476310040    2.1851665003
H        2.1323486123    1.0698448557    3.6535232673
H       -1.6544833108   -1.0517538231   -4.3384318190
H       -0.2156152283   -0.6070613936   -5.2555461670
H       -1.7413820189    0.2760519220   -5.5443495345
H        2.2708007449    1.9830666865   -1.1940614785
H        1.8298427761    2.0269408092   -2.9064852896
H        3.5360772835   -0.7086748173    0.4310317871
28   
torsion grid (180,)
H        0.1479914202    1.8536628336   -1.5202586164
C        0.6976382386    0.9083120457   -1.5311991399
C        0.4636919501    0.1378550461   -0.2403465770
O        0.8815341207    1.0168248466    0.8213630162
C        1.2107168588    0.4253589625    1.9932999282
C        1.9984205612    1.3686482764    2.8641514610
O        0.9095007889   -0.7192928407    2.2811644416
O        0.1323906817    0.0557080380   -2.5702989671
C       -0.3338319546    0.6469602754   -3.6842903854
C       -0.7175279531   -0.3935711070   -4.7130405179
O       -0.4249702350    1.8516550899   -3.8512465343
C        2.1702626157    1.1927945325   -1.8121354620
O        2.9178621256   -0.0075652692   -1.8962646258
P        4.2811958591   -0.1648175231   -0.9183616713
O        4.8414453072   -1.5187285299   -1.2344090194
O        3.5469905302   -0.3007860640    0.5970913334
O        5.0053304197    1.1464277045   -0.9186893893
H        1.0627291112   -0.7719199919   -0.2221384632
H       -0.5942626442   -0.1155125597   -0.1190722369
H        1.6172531517    2.3902367005    2.7876573093
H        3.0254215524    1.3538140517    2.4851325759
H        1.9797766471    1.0238223223    3.8991499555
H       -1.3078568629   -1.1912808316   -4.2546293484
H        0.1961845343   -0.8482672513   -5.1089200573
H       -1.2730405108    0.0783623449   -5.5241018911
H        2.5487163885    1.8557791797   -1.0275698647
H        2.2450479271    1.7347862451   -2.7632176201
H        3.4735477557   -1.2519220643    0.7778517695
