21   
torsion grid (-165,)
C       -0.8733352258   -2.1640018523    3.2983628242
C       -0.8627476119    0.0959557744   -0.0944152279
C       -1.5196863590    1.6856623800    1.7550896057
C       -3.2943558953    0.3480940564    0.5395053257
C       -1.8473741107    0.3580842445    1.0500029362
N       -2.1010530174   -1.8674684947    3.8017890041
N       -0.5829001119   -1.4619827564    2.2006234393
N       -2.6019072095   -0.9441397171    3.0002593567
N       -1.7032896075   -0.7301663552    2.0544453008
N       -0.0031579430   -3.0547198575    3.9039101037
H       -1.0493207601   -0.8752156486   -0.5608264514
H       -0.9926288113    0.8753145376   -0.8509323689
H        0.1708342707    0.1137272651    0.2551959236
H       -2.2196280657    1.8696196047    2.5744829292
H       -0.5038457685    1.6644728837    2.1605932173
H       -1.5907393655    2.5124756553    1.0417790262
H       -4.0027905209    0.5060251662    1.3546849542
H       -3.4194776436    1.1488559373   -0.1951373139
H       -3.5290540346   -0.6053599731    0.0571704916
H        0.6514002796   -3.4798950704    3.2577473990
H       -0.4865676590   -3.7385679265    4.4751527248
21   
torsion grid (-150,)
C       -0.9152569237   -2.1752441253    3.2977605937
C       -0.9257925887    0.0816446457   -0.1261024998
C       -1.4684658300    1.6294287983    1.7988251937
C       -3.3269682567    0.4237411273    0.5745436567
C       -1.8722729058    0.3464964286    1.0516866892
N       -2.2370237289   -2.0923444386    3.6066662560
N       -0.5676339978   -1.3600952605    2.2997317447
N       -2.7414072169   -1.1918298940    2.7817367175
N       -1.7494338833   -0.7845616223    2.0080801110
N       -0.0260104698   -2.9770416692    3.9924185058
H       -1.1773212155   -0.8590760991   -0.6246384391
H       -1.0250298159    0.8949114050   -0.8509204015
H        0.1129499641    0.0291529469    0.2042277666
H       -2.1377346529    1.8084730072    2.6452695047
H       -0.4440523814    1.5499111073    2.1728745547
H       -1.5264607572    2.4871754511    1.1218384820
H       -4.0130098041    0.5976884553    1.4051252235
H       -3.4182648360    1.2503785235   -0.1358515303
H       -3.6245935073   -0.5009395171    0.0722329014
H        0.7781864728   -3.2565896526    3.4430481690
H       -0.4833538515   -3.7619573478    4.4422513018
21   
torsion grid (-135,)
C       -0.9470205912   -2.1837960183    3.3008741908
C       -0.9674107541    0.0568191008   -0.1475083682
C       -1.4252517970    1.6100127543    1.7971086839
C       -3.3418010069    0.4658141818    0.6090571633
C       -1.8806300667    0.3433676973    1.0533053192
N       -2.2984180882   -2.2787504849    3.4188453127
N       -0.5710719225   -1.2583585401    2.4156215805
N       -2.7944400388   -1.3802186240    2.5861707036
N       -1.7645305066   -0.7971886366    1.9972648658
N       -0.0680275523   -2.9281217434    4.0683911107
H       -1.2715705211   -0.8641369347   -0.6540363344
H       -1.0381972289    0.8835598832   -0.8604057074
H        0.0726885825   -0.0478110984    0.1674516577
H       -2.0662338937    1.7988933660    2.6633869681
H       -0.3936005306    1.5047366361    2.1420872365
H       -1.4843321614    2.4729802592    1.1269869955
H       -4.0040970762    0.6654978285    1.4535267786
H       -3.4180766454    1.2947159434   -0.1004363798
H       -3.6848874058   -0.4475647424    0.1165578604
H        0.8328360934   -3.0694218276    3.6266622019
H       -0.4806591184   -3.7927059944    4.3997557899
21   
torsion grid (-120,)
C       -0.9703666654   -2.2055378726    3.2790177551
C       -1.0113737112    0.0329663401   -0.1726601408
C       -1.3908073897    1.5983557435    1.7810722157
C       -3.3576565279    0.5004191614    0.6378884933
C       -1.8905466837    0.3425929359    1.0493264027
N       -2.3054497628   -2.4541318230    3.2104546982
N       -0.5990109830   -1.1728223701    2.5192151387
N       -2.7964970337   -1.5465900859    2.3842955639
N       -1.7788953038   -0.8018159134    1.9884429598
N       -0.1123769328   -2.9124109250    4.1036556074
H       -1.3572032955   -0.8747853214   -0.6764023639
H       -1.0646369340    0.8642548887   -0.8819343179
H        0.0302595581   -0.1081660912    0.1245760898
H       -2.0052036961    1.8000648510    2.6636527744
H       -0.3535328456    1.4746772684    2.1002621793
H       -1.4525163084    2.4610905751    1.1110803014
H       -3.9969403337    0.6970652996    1.5013760796
H       -3.4314246526    1.3457693970   -0.0521992417
H       -3.7319351485   -0.3945468102    0.1358876307
H        0.8463043235   -2.9211432150    3.7757485021
H       -0.4603325821   -3.8398037225    4.3192719256
21   
torsion grid (-105,)
C       -0.9797511696   -2.2152522540    3.2795408014
C       -1.0373351946    0.0088969272   -0.1822608304
C       -1.3457664203    1.5915925982    1.7711551636
C       -3.3568758169    0.5326388425    0.6734070113
C       -1.8850030881    0.3444307982    1.0561263216
N       -2.2571600910   -2.5998610462    3.0155526726
N       -0.6401902075   -1.0898553190    2.6473347423
N       -2.7431784434   -1.6871562046    2.1925596705
N       -1.7822151669   -0.8009184650    1.9959027907
N       -0.1568742232   -2.8884816042    4.1655919450
H       -1.4137892894   -0.8936176162   -0.6730452432
H       -1.0828890459    0.8365094087   -0.8965288469
H        0.0067573443   -0.1538642535    0.0971658236
H       -1.9375889120    1.8110313521    2.6647455304
H       -0.3052177826    1.4524978444    2.0708483948
H       -1.4066405882    2.4497593813    1.0953924662
H       -3.9728231080    0.7336488864    1.5535448167
H       -3.4299345277    1.3866456344   -0.0060431006
H       -3.7589702748   -0.3495992937    0.1718411535
H        0.8302599595   -2.7648953251    3.9735087546
H       -0.4163601147   -3.8627337785    4.2706286361
21   
torsion grid (-90,)
C       -0.9737501355   -2.2253894940    3.2839694863
C       -1.0668578163   -0.0088651298   -0.2048936489
C       -1.2881312125    1.5691322646    1.7634764800
C       -3.3510869792    0.5574322523    0.7218927302
C       -1.8712684039    0.3376449214    1.0595755523
N       -2.1443966422   -2.7360627074    2.8169191578
N       -0.6962904901   -1.0235194999    2.7739697532
N       -2.6249654681   -1.8273179527    1.9869134422
N       -1.7697717188   -0.8187627682    1.9876170328
N       -0.2015400783   -2.8614000102    4.2405450305
H       -1.4831348531   -0.8941003029   -0.6942352461
H       -1.1033941329    0.8276236343   -0.9094144987
H       -0.0206893890   -0.2055335434    0.0459852598
H       -1.8287877903    1.7792667014    2.6907377712
H       -0.2336621619    1.4261317244    2.0057766798
H       -1.3840452389    2.4349347073    1.1017621827
H       -3.9315413005    0.7696185920    1.6240138385
H       -3.4318104229    1.4141638612    0.0467550950
H       -3.7856623322   -0.3163043926    0.2335288965
H        0.7795382541   -2.6115669029    4.1987229508
H       -0.3496904509   -3.8641555581    4.2525286128
21   
torsion grid (-75,)
C       -0.9824674718   -2.2346551071    3.2889042317
C       -1.1125115408    0.0286970874   -0.2560321509
C       -1.2186882149    1.5409866329    1.7700795705
C       -3.3434487388    0.5876117136    0.7997757403
C       -1.8500719673    0.3410979629    1.0569928312
N       -1.9756429555   -2.8536006105    2.5968153571
N       -0.7868871721   -0.9742210071    2.8945038713
N       -2.4252251748   -1.9553654530    1.7384044586
N       -1.7266939573   -0.8509509031    1.9388180901
N       -0.3061160379   -2.8344319524    4.3375453970
H       -1.5650331412   -0.8316447175   -0.7560800277
H       -1.1665500573    0.8916771353   -0.9266985239
H       -0.0585905498   -0.1926640758   -0.0623949224
H       -1.7021110154    1.7256696474    2.7330073493
H       -0.1530580146    1.3863436694    1.9479737960
H       -1.3458902783    2.4266445647    1.1407442215
H       -3.8706906576    0.7857204719    1.7375219949
H       -3.4547829825    1.4589440213    0.1478594775
H       -3.8095380549   -0.2734259616    0.3173686440
H        0.6244858150   -2.4609334373    4.4831608235
H       -0.3154672139   -3.8461481823    4.2744358582
21   
torsion grid (-60,)
C       -1.0235206254   -2.2452060679    3.2948578398
C       -1.2071661174    0.0859867460   -0.3737653027
C       -1.1365478364    1.4948226121    1.7204248545
C       -3.3375224307    0.5567330228    0.9134422589
C       -1.8221413624    0.3214396941    1.0148797091
N       -1.7308506185   -2.9555941788    2.3775613449
N       -0.9212342034   -0.9514231803    2.9789447711
N       -2.0922738481   -2.0830459141    1.4523825359
N       -1.6074449900   -0.9111803637    1.8224976828
N       -0.5259415047   -2.8003310170    4.4622949810
H       -1.6804465083   -0.7646713332   -0.8693605220
H       -1.3488349509    0.9767749490   -0.9930720918
H       -0.1340288768   -0.1113969527   -0.2915719065
H       -1.5499347282    1.6582293016    2.7180279865
H       -0.0618735410    1.3279546620    1.8214052451
H       -1.2960460923    2.3969940141    1.1226634392
H       -3.7732361220    0.6938502183    1.9076470722
H       -3.5297179677    1.4578154400    0.3232894284
H       -3.8307206424   -0.2903231453    0.4313317602
H        0.2848131124   -2.3125999836    4.8251415663
H       -0.3737413935   -3.7991601791    4.3790611239
21   
torsion grid (-45,)
C       -1.0746160030   -2.2433990685    3.3016124014
C       -1.2902554998    0.1411766696   -0.4446622947
C       -1.0483453668    1.4910807220    1.6705961248
C       -3.2999673546    0.5209921658    1.0535138812
C       -1.7763395671    0.3208576958    1.0001588921
N       -1.4394018198   -2.9916114946    2.2264863372
N       -1.0811478652   -0.9334607207    3.0440881191
N       -1.6908591221   -2.1275669826    1.2589547504
N       -1.4579198663   -0.9231325852    1.7517529516
N       -0.7893217578   -2.7902550565    4.5413159936
H       -1.7812855560   -0.7068353538   -0.9256393592
H       -1.5171715712    1.0474245467   -1.0137128582
H       -0.2093005608   -0.0244193687   -0.4716706764
H       -1.3899677787    1.6408046936    2.6962472440
H        0.0318160789    1.3232576841    1.6910682190
H       -1.2480120830    2.4004229634    1.0963202144
H       -3.6406662901    0.6012466739    2.0900001226
H       -3.5720695749    1.4410395401    0.5272371481
H       -3.8155980766   -0.3184688024    0.5796940338
H       -0.1661924670   -2.2184952533    5.0994649552
H       -0.4808091712   -3.7537145694    4.4764571158
21   
torsion grid (-30,)
C       -1.0962750333   -2.2500989052    3.2949806441
C       -1.3569731074    0.1445624466   -0.4701177961
C       -1.0036094188    1.4951380202    1.6292365950
C       -3.2813768555    0.5087550716    1.1360690539
C       -1.7613977422    0.3195163055    0.9984380024
N       -1.1624681420   -2.9847242880    2.1524428767
N       -1.2453974852   -0.9420882548    3.0754147904
N       -1.3655606659   -2.1147214745    1.1790033061
N       -1.3933630499   -0.9163826371    1.7373278461
N       -0.9513978207   -2.8163843840    4.5497804865
H       -1.8734465162   -0.6987645830   -0.9316152703
H       -1.6168591138    1.0565675622   -1.0151049753
H       -0.2800249596   -0.0210789808   -0.5624754956
H       -1.2831671864    1.6323714149    2.6752011684
H        0.0770956647    1.3332995162    1.5792906635
H       -1.2430045953    2.4087426736    1.0773284190
H       -3.5644724118    0.5905942885    2.1890754170
H       -3.5901156264    1.4232134150    0.6204196925
H       -3.8158593393   -0.3370840971    0.6941049457
H       -0.5208798260   -2.1953100000    5.2247688744
H       -0.5036420497   -3.7251587868    4.5144413083
21   
torsion grid (-15,)
C       -1.1182441829   -2.2677077440    3.2915883037
C       -1.4168714435    0.1326543916   -0.4699656559
C       -0.9779463127    1.4841824980    1.6149430614
C       -3.2826211556    0.5254671760    1.1924651618
C       -1.7702790494    0.3162529275    1.0096113879
N       -0.9267431675   -2.9513061804    2.1316694339
N       -1.4183168120   -0.9830833478    3.0888828974
N       -1.1171860814   -2.0727246479    1.1629445449
N       -1.3946877598   -0.9184514341    1.7445131956
N       -1.0668292127   -2.8669546777    4.5381826168
H       -1.9644507779   -0.7003946474   -0.9147159038
H       -1.6800344484    1.0504065836   -1.0036176407
H       -0.3481082911   -0.0536062408   -0.6023449421
H       -1.2051956039    1.6036231639    2.6761071979
H        0.0982363553    1.3192542862    1.5061549347
H       -1.2410905026    2.4084797687    1.0922742955
H       -3.5329052380    0.6249242056    2.2516638639
H       -3.5952013959    1.4355236831    0.6715694726
H       -3.8406402149   -0.3199648409    0.7791205111
H       -0.8209773876   -2.2263997308    5.2837634701
H       -0.4981220655   -3.7060883975    4.5405380721
21   
torsion grid (0,)
C       -1.1036876158   -2.2723770873    3.2782935114
C       -1.4609404407    0.1173877035   -0.4843127869
C       -0.9453006096    1.4732928948    1.5835865671
C       -3.2737994031    0.5467520540    1.2216626251
C       -1.7704645916    0.3139494687    1.0029980020
N       -0.6805913888   -2.8781275844    2.1367919730
N       -1.5576793976   -1.0350766663    3.0668375877
N       -0.8771675481   -1.9980666410    1.1702076761
N       -1.3934565123   -0.9209347040    1.7358890170
N       -1.1190036511   -2.9065210608    4.5084243972
H       -2.0276742596   -0.7163722359   -0.9046006956
H       -1.7375547214    1.0322137701   -1.0161518015
H       -0.3989976409   -0.0765234739   -0.6507705283
H       -1.1463491048    1.5966246876    2.6501853490
H        0.1250332207    1.2901688356    1.4485822665
H       -1.2055263070    2.4021328719    1.0673886829
H       -3.4992394557    0.6549526650    2.2849519508
H       -3.5822220207    1.4587670277    0.7019052844
H       -3.8551168668   -0.2913748612    0.8257762413
H       -1.0590382346   -2.2675467653    5.2924790510
H       -0.4418136031   -3.6587505174    4.5642186604
21   
torsion grid (15,)
C       -1.0959389381   -2.2811522767    3.2734532432
C       -1.5072152740    0.1048280786   -0.4860179798
C       -0.9161781704    1.4594077560    1.5669382976
C       -3.2666808741    0.5698090580    1.2613191907
C       -1.7740270662    0.3119788005    1.0085636087
N       -0.4591667975   -2.7779878536    2.1793372279
N       -1.6919440923   -1.1109423619    3.0349015028
N       -0.6607666189   -1.8956795851    1.2162947330
N       -1.3969552390   -0.9276049714    1.7343821588
N       -1.1700155607   -2.9608527421    4.4767766681
H       -2.0860108520   -0.7346851321   -0.8791494952
H       -1.8039577954    1.0131112740   -1.0182638784
H       -0.4512383078   -0.0882725188   -0.6842720024
H       -1.0887335327    1.5834479198    2.6390622846
H        0.1471437266    1.2597547366    1.4036019329
H       -1.1750128920    2.3943110771    1.0608258276
H       -3.4686871889    0.6909130125    2.3273587609
H       -3.5690268493    1.4823333889    0.7391019658
H       -3.8714970853   -0.2610626784    0.8861244021
H       -1.2948094408   -2.3523718290    5.2772694979
H       -0.4063660042   -3.6162692010    4.5984761457
21   
torsion grid (30,)
C       -1.0869521804   -2.2876112577    3.2702854543
C       -1.5564479519    0.0816462932   -0.4890991763
C       -0.8844867634    1.4556908750    1.5299953441
C       -3.2511374796    0.5872538550    1.3070342554
C       -1.7711268968    0.3109565846    1.0118056576
N       -0.2478610924   -2.6436537786    2.2607103848
N       -1.8071942229   -1.2015358942    2.9825300995
N       -0.4452484857   -1.7562240838    1.3023493541
N       -1.3790294003   -0.9262064581    1.7360402415
N       -1.2217943928   -3.0247302778    4.4339048647
H       -2.1521318496   -0.7634543431   -0.8446419700
H       -1.8702973573    0.9801039604   -1.0282375566
H       -0.5086173740   -0.1177779230   -0.7199838730
H       -1.0216254131    1.5911144342    2.6064670203
H        0.1705963371    1.2436256889    1.3341493700
H       -1.1508797505    2.3895101021    1.0256250397
H       -3.4219474523    0.7367479696    2.3744830794
H       -3.5577850260    1.4900447974    0.7707528380
H       -3.8767423865   -0.2449268562    0.9716037166
H       -1.5363955569   -2.4760277410    5.2254667014
H       -0.3955723853   -3.5740106498    4.6417369459
21   
torsion grid (45,)
C       -1.0874111505   -2.2990433348    3.2801595192
C       -1.6242019103    0.0372655513   -0.4603698084
C       -0.8769196680    1.4953764671    1.4740614885
C       -3.2400003250    0.5997804806    1.3906451007
C       -1.7737387173    0.3240152093    1.0400962019
N       -0.0532507659   -2.4593716384    2.4121505354
N       -1.9084713440   -1.3075392810    2.9262566156
N       -0.2266460406   -1.5421543779    1.4770276772
N       -1.3315431541   -0.8851568169    1.7858036928
N       -1.2956063627   -3.1294755776    4.3682445199
H       -2.2473780800   -0.8117077418   -0.7559229576
H       -1.9444683969    0.9170899740   -1.0260133784
H       -0.5882167316   -0.1885118854   -0.7196979513
H       -0.9572430511    1.6618268581    2.5524521198
H        0.1686265679    1.2918041535    1.2278849321
H       -1.1857572045    2.4102267471    0.9591805126
H       -3.3643700023    0.8168666214    2.4529503725
H       -3.5797528584    1.4639940886    0.8124285785
H       -3.8722380080   -0.2564170844    1.1411312727
H       -1.8103702430   -2.6868858110    5.1204788109
H       -0.4399724289   -3.5699671497    4.6868277903
21   
torsion grid (60,)
C       -1.0768368205   -2.3250542723    3.2484482250
C       -1.6658442576   -0.0633069856   -0.4124682089
C       -0.8460669385    1.5769177675    1.3346761949
C       -3.1907486284    0.6493630368    1.4699780799
C       -1.7434674313    0.3590835102    1.0632855091
N        0.1211752182   -2.2340382190    2.6135905174
N       -1.9587052869   -1.4184093456    2.8190680163
N       -0.0068353482   -1.2403810244    1.7509993841
N       -1.2350811863   -0.7729991707    1.8864687919
N       -1.3629351176   -3.3010811861    4.1887611963
H       -2.2833961348   -0.9483204358   -0.5927965490
H       -2.0320299897    0.7499787462   -1.0462339579
H       -0.6366137712   -0.2935339622   -0.6967885220
H       -0.8816518024    1.8539824342    2.3926672365
H        0.1908357121    1.3632555510    1.0656981337
H       -1.1944912505    2.4281304106    0.7420882576
H       -3.2618404377    0.9262499226    2.5241516296
H       -3.5584578130    1.4823452572    0.8636857614
H       -3.8344852020   -0.2167976901    1.3022438414
H       -2.0795607194   -3.0243314978    4.8496075580
H       -0.5284728499   -3.6525697213    4.6446992327
21   
torsion grid (75,)
C       -1.0766369367   -2.3509064338    3.2021547434
C       -1.7237187934   -0.1704215744   -0.3289757002
C       -0.8414191829    1.6234242816    1.2226880361
C       -3.1770006245    0.7231917729    1.5400584267
C       -1.7470446302    0.3895435508    1.1033791533
N        0.1922992935   -2.0181341883    2.8447176065
N       -1.9904699495   -1.5248896020    2.6875749381
N        0.0779902840   -0.9505200874    2.0746747045
N       -1.2108358897   -0.6637917344    2.0071845828
N       -1.3789653419   -3.4648980092    3.9669545364
H       -2.3319073367   -1.0772754253   -0.3975748300
H       -2.1285936718    0.5713615148   -1.0241883895
H       -0.7010844204   -0.4113280780   -0.6308752885
H       -0.8398282596    2.0059660591    2.2476074576
H        0.1865359953    1.3888564156    0.9405142115
H       -1.2175575570    2.4081557024    0.5598981936
H       -3.2023003332    1.0632213754    2.5788498394
H       -3.5576757813    1.5260867034    0.9020709021
H       -3.8361436342   -0.1417166793    1.4478406227
H       -2.2462455118   -3.3751036244    4.4831978279
H       -0.6040014565   -3.7518760737    4.5540855713
21   
torsion grid (90,)
C       -0.8765909070   -2.2945964881    3.1660420389
C       -0.6258570459    0.4207279919    0.0677934358
C       -1.9828792012    1.7836776540    1.7101427198
C       -3.0679491074   -0.1220461072    0.4629182552
C       -1.7699930676    0.3948288462    1.0955851937
N       -0.3915767585   -1.2676693704    3.9144978323
N       -1.4976100693   -1.8779807784    2.0607237578
N       -0.7106459465   -0.1660597690    3.2589341313
N       -1.3768136747   -0.5422197972    2.1802143433
N       -0.6855775748   -3.6251655999    3.4963416556
H       -0.4547060500   -0.5780768682   -0.3432676425
H       -0.8802625853    1.0965732386   -0.7543719918
H        0.2998076934    0.7716254230    0.5328227689
H       -2.7621536177    1.7580597970    2.4768582382
H       -1.0678965330    2.1659454773    2.1656874861
H       -2.2955920016    2.4715207159    0.9192753083
H       -3.8698068675   -0.1721292046    1.2053695775
H       -3.3736964762    0.5649607967   -0.3315034498
H       -2.9318021565   -1.1167057768    0.0350445370
H       -1.3998663304   -4.2395941798    3.1236181240
H       -0.5346643581   -3.7591614163    4.4897408325
21   
torsion grid (105,)
C       -0.8794913716   -2.2812076234    3.1825062406
C       -0.6443170391    0.3732855403    0.0531878364
C       -1.9345567078    1.8009304047    1.6920081666
C       -3.0942247403   -0.0939400230    0.4936741947
C       -1.7715026371    0.3974080796    1.0989863278
N       -0.6305852509   -1.2519019158    4.0357173802
N       -1.3578953413   -1.8704677252    2.0061556381
N       -0.9570631929   -0.1537316183    3.3768903402
N       -1.3928368901   -0.5372601575    2.1892321032
N       -0.6018621084   -3.6016036145    3.4911041449
H       -0.5092593148   -0.6353020794   -0.3455997751
H       -0.8925533398    1.0463100761   -0.7730507468
H        0.2994987571    0.7028731384    0.4976021891
H       -2.7076951342    1.8181739589    2.4643545980
H       -1.0042629620    2.1617120098    2.1346556387
H       -2.2285165415    2.4825649878    0.8887214212
H       -3.8868380184   -0.0983839554    1.2479592215
H       -3.3915945556    0.5774853854   -0.3171838334
H       -2.9904224236   -1.1043151922    0.0932635133
H       -1.1794652126   -4.2637510944    2.9865386127
H       -0.5943094438   -3.7717084500    4.4903989063
21   
torsion grid (120,)
C       -0.8876333452   -2.2699111756    3.1963207208
C       -0.6645197002    0.3470805669    0.0344720710
C       -1.8905967642    1.8167796952    1.6831352966
C       -3.1130933069   -0.0677428825    0.5278030357
C       -1.7682661442    0.4045476293    1.1024788386
N       -0.8724734881   -1.2665096689    4.1138496025
N       -1.2115703451   -1.8444265364    1.9732957913
N       -1.1944847425   -0.1695169349    3.4502308830
N       -1.3898679498   -0.5286877486    2.1934161582
N       -0.5366523714   -3.5742671944    3.4981877568
H       -0.5586360863   -0.6659071999   -0.3602376428
H       -0.9169910482    1.0213088251   -0.7893449037
H        0.2958740893    0.6588842867    0.4558331799
H       -2.6600861692    1.8669933090    2.4567568383
H       -0.9479989448    2.1532736770    2.1203780542
H       -2.1638341889    2.4985818136    0.8727248119
H       -3.8905136961   -0.0455532910    1.2975339052
H       -3.4150298184    0.5951124443   -0.2885378394
H       -3.0335832712   -1.0863406679    0.1413268044
H       -0.9633860204   -4.2590880355    2.8853517120
H       -0.6672177581   -3.7925000481    4.4794652204
21   
torsion grid (135,)
C       -0.8903104530   -2.2668288319    3.2090718515
C       -0.6825918186    0.3082177148    0.0128930842
C       -1.8448278801    1.8210863545    1.6674274590
C       -3.1269180184   -0.0545872530    0.5580193090
C       -1.7618196345    0.3997957903    1.1014074951
N       -1.1160776549   -1.3122529374    4.1509814094
N       -1.0574815381   -1.8125085218    1.9652108379
N       -1.4334785545   -0.2174671705    3.4821865076
N       -1.3832105734   -0.5273646563    2.1980578726
N       -0.4641968614   -3.5466107232    3.5189732324
H       -0.6014738133   -0.7095650512   -0.3735889398
H       -0.9430879443    0.9789164087   -0.8111975815
H        0.2924895113    0.6075710749    0.4086324565
H       -2.6026011589    1.8998742522    2.4491962129
H       -0.8871436345    2.1364581075    2.0890861076
H       -2.1085964517    2.5015778061    0.8527620421
H       -3.8879587657   -0.0101372085    1.3429100458
H       -3.4355389532    0.6015994133   -0.2613541638
H       -3.0707997018   -1.0793973893    0.1822403000
H       -0.7187061171   -4.2367854618    2.8222002612
H       -0.7247480404   -3.8242002860    4.4584392572
21   
torsion grid (150,)
C       -0.8964530488   -2.2471641762    3.2192067789
C       -0.7037877174    0.2837135557    0.0004634938
C       -1.7874713134    1.8457163690    1.6614189228
C       -3.1484501341    0.0034747092    0.5847697864
C       -1.7607684808    0.4178973249    1.1041004129
N       -1.3719568594   -1.3727029736    4.1457834296
N       -0.9105067407   -1.7451490360    1.9825446029
N       -1.6945522100   -0.2810664440    3.4749678372
N       -1.3996431094   -0.5110002213    2.2066638430
N       -0.3875436413   -3.4917731681    3.5475495437
H       -0.6809347690   -0.7288098430   -0.4059041980
H       -0.9424366351    0.9828750650   -0.8063181463
H        0.2923291974    0.5231351998    0.3836976343
H       -2.5259830036    1.9521882592    2.4576991657
H       -0.8096816914    2.1285719688    2.0610293879
H       -2.0436971570    2.5328593786    0.8499255264
H       -3.8972452275    0.0881697280    1.3776866286
H       -3.4444624771    0.6539482827   -0.2438595871
H       -3.1319018561   -1.0295423931    0.2263114931
H       -0.4530102517   -4.1661980852    2.7941919963
H       -0.7616139010   -3.8439107720    4.4214367902
21   
torsion grid (165,)
C       -0.8950180755   -2.2324323186    3.2378258555
C       -0.7362344499    0.2266290014   -0.0083797767
C       -1.7183784912    1.8416772244    1.6658604440
C       -3.1884085627    0.0866598336    0.5823977982
C       -1.7775680851    0.4166651470    1.0994949098
N       -1.6412559107   -1.4836562230    4.0928413243
N       -0.7744164583   -1.6716675742    2.0322324593
N       -2.0024084598   -0.4131202128    3.4077523079
N       -1.4698672050   -0.5320156601    2.2035979266
N       -0.2714675811   -3.4102990963    3.6128893553
H       -0.7781748524   -0.7795286759   -0.4288918793
H       -0.9382451971    0.9498247964   -0.8038725576
H        0.2758560976    0.3971163509    0.3681842312
H       -2.4401187737    1.9770342856    2.4734147710
H       -0.7199091593    2.0632620016    2.0538719613
H       -1.9465994809    2.5534213601    0.8671538697
H       -3.9293395179    0.2144514941    1.3760446118
H       -3.4455026188    0.7529586115   -0.2467027421
H       -3.2342342221   -0.9457108429    0.2229547322
H       -0.1111435680   -4.0454726697    2.8398644435
H       -0.7319766646   -3.8579577258    4.3972143053
21   
torsion grid (180,)
C       -0.8888687310   -2.2057163576    3.2702379261
C       -0.8074191023    0.1528548691   -0.0327766427
C       -1.6271432259    1.7812411473    1.7137872481
C       -3.2620792026    0.2315335057    0.5556334459
C       -1.8277976611    0.3940131859    1.0830921237
N       -1.9156399033   -1.6628089890    3.9754956890
N       -0.6706386350   -1.5791658638    2.1109384860
N       -2.3599302084   -0.6569460531    3.2414622317
N       -1.6170772790   -0.6238255250    2.1495150055
N       -0.1151115711   -3.2523610277    3.7440116320
H       -0.9260952347   -0.8385014598   -0.4756881697
H       -0.9642543146    0.9050518218   -0.8114087334
H        0.2167008303    0.2393254765    0.3365761509
H       -2.3411222441    1.9466488535    2.5237546840
H       -0.6145710542    1.8781055446    2.1168174700
H       -1.7730207317    2.5540432111    0.9531152492
H       -3.9897351725    0.3779572440    1.3570539533
H       -3.4501053863    0.9708053126   -0.2287646399
H       -3.4063463969   -0.7669841119    0.1319480502
H        0.3058926430   -3.8062022868    3.0072186504
H       -0.6097327133   -3.8200296063    4.4228661247
