
  -OEChem-12122420533D

 29 30  0     1  0  0  0  0  0999 V2000
   -0.1515    2.4734   -1.3063 C   0  0  0  0  0  0  0  0  0  0  0  0
   -1.2100    2.5977   -0.3975 C   0  0  0  0  0  0  0  0  0  0  0  0
    0.4741    1.2387   -1.4887 C   0  0  0  0  0  0  0  0  0  0  0  0
   -1.6495    1.4981    0.3467 C   0  0  0  0  0  0  0  0  0  0  0  0
    0.0253    0.1442   -0.7497 C   0  0  0  0  0  0  0  0  0  0  0  0
   -1.0217    0.2697    0.1705 C   0  0  0  0  0  0  0  0  0  0  0  0
    0.3371   -2.1397   -0.0751 C   0  0  0  0  0  0  0  0  0  0  0  0
   -0.4337   -1.7791    1.1827 C   0  0  1  0  0  0  0  0  0  0  0  0
    0.7482   -0.3746    4.6367 C   0  0  0  0  0  0  0  0  0  0  0  0
    0.5261   -1.2620    2.2680 C   0  0  0  0  0  0  0  0  0  0  0  0
   -0.2122   -0.8955    3.5628 C   0  0  0  0  0  0  0  0  0  0  0  0
    0.5743   -1.1610   -0.9313 N   0  0  0  0  0  0  0  0  0  0  0  0
    0.7721   -3.3833   -0.2586 N   0  3  0  0  0  0  0  0  0  0  0  0
   -1.4635   -0.8490    0.8448 O   0  0  0  0  0  0  0  0  0  0  0  0
    0.1859    3.3348   -1.8733 H   0  0  0  0  0  0  0  0  0  0  0  0
   -1.6945    3.5596   -0.2618 H   0  0  0  0  0  0  0  0  0  0  0  0
    1.2935    1.1307   -2.1955 H   0  0  0  0  0  0  0  0  0  0  0  0
   -2.4694    1.5781    1.0536 H   0  0  0  0  0  0  0  0  0  0  0  0
   -0.9660   -2.6646    1.5395 H   0  0  0  0  0  0  0  0  0  0  0  0
    1.5045   -1.1234    4.8956 H   0  0  0  0  0  0  0  0  0  0  0  0
    0.2039   -0.1216    5.5507 H   0  0  0  0  0  0  0  0  0  0  0  0
    1.2697    0.5274    4.2991 H   0  0  0  0  0  0  0  0  0  0  0  0
    1.2714   -2.0423    2.4678 H   0  0  0  0  0  0  0  0  0  0  0  0
    1.0733   -0.3919    1.8875 H   0  0  0  0  0  0  0  0  0  0  0  0
   -0.9717   -0.1391    3.3426 H   0  0  0  0  0  0  0  0  0  0  0  0
   -0.7483   -1.7768    3.9361 H   0  0  0  0  0  0  0  0  0  0  0  0
    1.1127   -1.3313   -1.7779 H   0  0  0  0  0  0  0  0  0  0  0  0
    1.3232   -3.6666   -1.0633 H   0  0  0  0  0  0  0  0  0  0  0  0
    0.5544   -4.1026    0.4219 H   0  0  0  0  0  0  0  0  0  0  0  0
  1  2  1  0  0  0  0
  1  3  2  0  0  0  0
  1 15  1  0  0  0  0
  2  4  2  0  0  0  0
  2 16  1  0  0  0  0
  3  5  1  0  0  0  0
  3 17  1  0  0  0  0
  4  6  1  0  0  0  0
  4 18  1  0  0  0  0
  5  6  2  0  0  0  0
  5 12  1  0  0  0  0
  6 14  1  0  0  0  0
  7  8  1  0  0  0  0
  7 12  1  0  0  0  0
  7 13  2  0  0  0  0
  8 10  1  0  0  0  0
  8 14  1  0  0  0  0
  8 19  1  0  0  0  0
  9 11  1  0  0  0  0
  9 20  1  0  0  0  0
  9 21  1  0  0  0  0
  9 22  1  0  0  0  0
 10 11  1  0  0  0  0
 10 23  1  0  0  0  0
 10 24  1  0  0  0  0
 11 25  1  0  0  0  0
 11 26  1  0  0  0  0
 12 27  1  0  0  0  0
 13 28  1  0  0  0  0
 13 29  1  0  0  0  0
M  CHG  1  13   1
M  END
$$$$
