26   
torsion grid (-165,)
C       -4.5486708456    3.9203963159   -2.7030249274
C       -3.2635864739    4.2588998607   -2.3397916314
C       -2.2873528859    1.0697944902   -0.6522475532
C       -1.0104673200    1.3540839975   -0.2353962273
C       -1.1339598601    3.5679549820   -1.2406714614
C       -5.0381520896    2.6314821717   -2.3641769231
C       -0.7077588067    2.6769240089    3.7404625826
C        0.5182549482    3.0118469918    4.3032951695
C       -2.4718997632    3.3135479452   -1.6369979650
C       -3.0625214826    2.0412672193   -1.3457176142
C       -0.4311025479    2.6248873454   -0.5172716774
C        0.6884541913    2.7512483242    2.1056071710
N       -4.3365552623    1.7190986900   -1.7158220863
N       -0.5937303682    2.5252524598    2.3881033501
N        0.9428251556    2.8946684899   -0.2343503593
N        1.4338571320    2.8580526456    0.9263948296
N        1.3916778469    3.0533907095    3.2530441174
H       -5.1877717847    4.6156071478   -3.2400349571
H       -2.8491343419    5.2350376699   -2.5821241602
H       -2.7435975961    0.1045501448   -0.4540084873
H       -0.4289545689    0.6147484016    0.3057231182
H       -0.6598345952    4.5130066477   -1.4942834058
H       -6.0531971096    2.3507192103   -2.6455311099
H       -1.6539886524    2.5390219573    4.2482021172
H        0.8180545830    3.2134243627    5.3218564198
H        2.3790379954    3.2793104043    3.2674823107
26   
torsion grid (-150,)
C       -4.5251736037    3.9728027748   -2.6610610010
C       -3.2295774292    4.2731477507   -2.3031758976
C       -2.3230219142    1.0396815990   -0.6619679338
C       -1.0346429829    1.2834527056   -0.2507267310
C       -1.1107738826    3.5132260700   -1.2288245260
C       -5.0448740996    2.6924747566   -2.3323883875
C       -0.6525113369    2.4670329655    3.7457014663
C        0.4419080279    3.1615396911    4.2408914630
C       -2.4572871825    3.2991418895   -1.6173267410
C       -3.0779145405    2.0386033195   -1.3363425855
C       -0.4270185057    2.5422528896   -0.5221066425
C        0.7156064173    2.6618246708    2.0954541387
N       -4.3634774158    1.7546201827   -1.6999902111
N       -0.4776763296    2.1717853136    2.4207529358
N        0.9549472492    2.7904779092   -0.2491442577
N        1.4548018155    2.7595046180    0.9070601100
N        1.3050808788    3.2680798134    3.1833036862
H       -5.1499328220    4.6901123709   -3.1857385912
H       -2.7913116727    5.2408263072   -2.5374344884
H       -2.8029907154    0.0848507068   -0.4698579906
H       -0.4696246861    0.5234329215    0.2770759383
H       -0.6126848837    4.4472499194   -1.4776930523
H       -6.0690142132    2.4416749839   -2.6090897395
H       -1.5444021290    2.1656431625    4.2801620499
H        0.6616389802    3.5697888451    5.2170875695
H        2.2157687155    3.7106629610    3.1617123906
26   
torsion grid (-135,)
C       -4.4776631196    4.0296524791   -2.6333812119
C       -3.1682914992    4.2904788319   -2.2973719294
C       -2.3541198862    1.0529221063   -0.6156628183
C       -1.0505174913    1.2563328850   -0.2259160108
C       -1.0647579878    3.4733141749   -1.2369911918
C       -5.0384197340    2.7738838441   -2.2756386603
C       -0.5516318218    2.2312775961    3.7548842266
C        0.3008923399    3.2441783092    4.1555291090
C       -2.4221186421    3.3006047481   -1.6043742731
C       -3.0825739523    2.0672374859   -1.2937753743
C       -0.4050088652    2.4900915619   -0.5219531971
C        0.7494097677    2.5966794252    2.0820413569
N       -4.3828700772    1.8233131975   -1.6360504735
N       -0.2729995119    1.8439793637    2.4664296075
N        0.9844219343    2.7204735839   -0.2633445252
N        1.4934214938    2.6977778213    0.8872742313
N        1.1349533083    3.4566151553    3.0832514845
H       -5.0837022154    4.7593502994   -3.1628237683
H       -2.6990462970    5.2377469062   -2.5539946176
H       -2.8633533613    0.1176978814   -0.4035833316
H       -0.5048568126    0.4841721391    0.3017989975
H       -0.5370917290    4.3845913028   -1.5083441579
H       -6.0744567355    2.5556244962   -2.5350660560
H       -1.3415314041    1.7617237943    4.3267045246
H        0.3790455270    3.8092098249    5.0733357149
H        1.9051137174    4.1100915405    3.0145896631
26   
torsion grid (-120,)
C       -4.4779166833    3.9480640500   -2.9169771598
C       -3.1555679270    4.1899254491   -2.6233424863
C       -2.5373361340    1.2909213164   -0.3441546025
C       -1.2213797379    1.4805882379    0.0148815090
C       -1.1097598539    3.4656492744   -1.3980325942
C       -5.1142278814    2.8210460205   -2.3281149839
C       -0.0414447347    1.7192378250    3.8796840823
C        0.3019234856    3.0117839720    4.2092351477
C       -2.4726606266    3.3092814311   -1.7416028133
C       -3.2063054300    2.2009107030   -1.2057955931
C       -0.5031184060    2.6028562735   -0.4957189525
C        0.7965338726    2.5722904007    2.0906011012
N       -4.5192999461    1.9739074996   -1.5095654614
N        0.2669751701    1.4545462237    2.5602372945
N        0.8729422674    2.9037287355   -0.2607352555
N        1.4445063164    2.8611805477    0.8577849210
N        0.8543279015    3.5425977741    3.0578341285
H       -5.0390833600    4.5954815220   -3.5846250845
H       -2.6282943419    5.0388572207   -3.0527754412
H       -3.0986488086    0.4374567508    0.0243551350
H       -0.7224264080    0.7802596461    0.6710209816
H       -0.5238485166    4.2739545995   -1.8283859228
H       -6.1619581050    2.6202193551   -2.5520554728
H       -0.4894693369    0.9655307797    4.5137889219
H        0.1965551723    3.5864049089    5.1181173916
H        1.2681106080    4.4583793472    2.9401180020
26   
torsion grid (-105,)
C       -4.3725894220    4.0239487402   -2.8541658357
C       -3.0356403212    4.2235933251   -2.5963395981
C       -2.4791476215    1.3783036725   -0.2344699911
C       -1.1499118152    1.5274252949    0.0917741024
C       -0.9926371126    3.4617978159   -1.3870958793
C       -5.0386572595    2.9431559447   -2.2143678547
C        0.0723247687    1.6533120052    3.8816882523
C        0.0891535133    3.0088708117    4.1092920113
C       -2.3679145007    3.3468627956   -1.6996165999
C       -3.1315269220    2.2865332407   -1.1117772240
C       -0.4020052980    2.6055643475   -0.4703432259
C        0.8444420610    2.5328484724    2.0795359382
N       -4.4582924116    2.1010938174   -1.3799679046
N        0.5502332773    1.3642566442    2.6141811612
N        0.9887742063    2.8612423786   -0.2553831583
N        1.5523941630    2.8073287612    0.8637232582
N        0.6003263976    3.5648459325    2.9439715073
H       -4.9229115081    4.6702023907   -3.5318370662
H       -2.4858963482    5.0364852012   -3.0654004481
H       -3.0644217548    0.5579651551    0.1700811749
H       -0.6623142658    0.8215197919    0.7514069535
H       -0.3856780161    4.2338667098   -1.8533401916
H       -6.0979551046    2.7759580621   -2.4093639566
H       -0.2541925229    0.8675706203    4.5501033272
H       -0.2127883072    3.6141050221    4.9516809133
H        0.8016752102    4.5409535759    2.7709824018
26   
torsion grid (-90,)
C       -4.2870676472    4.0906685144   -2.7951598676
C       -2.9396021590    4.2585149177   -2.5703263045
C       -2.3999746619    1.4158372999   -0.2004865754
C       -1.0609602943    1.5343652504    0.0941667288
C       -0.8882473507    3.4561945170   -1.4013596627
C       -4.9649156854    3.0320222816   -2.1318523655
C        0.1575604531    1.6313773312    3.8425310685
C       -0.1007984811    2.9788150625    3.9236844669
C       -2.2733451058    3.3716310746   -1.6829804298
C       -3.0492467260    2.3350732634   -1.0698615341
C       -0.3011945096    2.5903531469   -0.4939166949
C        0.9068662614    2.4725970617    2.0159885364
N       -4.3858526157    2.1814483536   -1.3048914620
N        0.8016825344    1.3264385967    2.6536773534
N        1.1032514818    2.7983203554   -0.3008337342
N        1.6622463194    2.7230886172    0.8185296084
N        0.3981408482    3.5143093941    2.7420348478
H       -4.8366674924    4.7457093734   -3.4649007360
H       -2.3810476659    5.0538704415   -3.0586042223
H       -2.9962252641    0.6129217503    0.2224291156
H       -0.5768681570    0.8167178858    0.7444126066
H       -0.2733099878    4.2111023018   -1.8850892463
H       -6.0323354589    2.8901076967   -2.3004775533
H       -0.0757322338    0.8618724787    4.5665807666
H       -0.5715290651    3.5914213199    4.6788043037
H        0.3946341585    4.4877530899    2.4670532168
26   
torsion grid (-75,)
C       -4.2779504253    4.1150871003   -2.7377904207
C       -2.9255787806    4.2689104586   -2.5311962456
C       -2.3877561548    1.4400179462   -0.1437832182
C       -1.0445843831    1.5473937998    0.1313458839
C       -0.8672702878    3.4544864379   -1.3811088451
C       -4.9582809429    3.0698121365   -2.0569755000
C        0.2245244085    1.6588384715    3.8737652304
C       -0.2744063354    2.9389951111    3.7910062241
C       -2.2574456630    3.3820718004   -1.6456065062
C       -3.0370947583    2.3594768488   -1.0144918537
C       -0.2788396914    2.5882896178   -0.4766954069
C        0.9298956179    2.4316812380    2.0016661328
N       -4.3777935103    2.2192590631   -1.2303823564
N        0.9971297280    1.3617413051    2.7651300380
N        1.1347830538    2.7576272706   -0.3035291253
N        1.6984286444    2.6528830004    0.8124627878
N        0.2009546237    3.4345579197    2.5853899695
H       -4.8285293612    4.7709211402   -3.4059651539
H       -2.3646384277    5.0537841959   -3.0334431820
H       -2.9882228398    0.6488849255    0.2950435322
H       -0.5620543013    0.8300960449    0.7845855850
H       -0.2504648568    4.1991233789   -1.8783093743
H       -6.0292508621    2.9382253752   -2.2102632670
H        0.0846005773    0.9390356057    4.6695530041
H       -0.8791506643    3.5344165868    4.4596353278
H        0.0000908988    4.3404634071    2.1823343012
26   
torsion grid (-60,)
C       -4.2458566951    4.1716613117   -2.6813051172
C       -2.8924038248    4.3165312092   -2.4736373609
C       -2.3594283785    1.4181895443   -0.1692528317
C       -1.0162693010    1.5161516939    0.1051728654
C       -0.8333454599    3.4646773308   -1.3520510318
C       -4.9287333089    3.1090027183   -2.0313271398
C        0.3076587895    1.7700160197    3.9454416454
C       -0.3752311925    2.9411022287    3.6881751027
C       -2.2250820763    3.4020534689   -1.6162720406
C       -3.0069806480    2.3635062260   -1.0146138462
C       -0.2467430884    2.5695676683   -0.4763503220
C        0.9571969159    2.4032941604    2.0008149207
N       -4.3480958884    2.2329792675   -1.2314941348
N        1.1577954556    1.4633201126    2.9044147874
N        1.1717985573    2.6902645219   -0.3048788208
N        1.7279528201    2.5543756317    0.8140071709
N        0.0613514035    3.3480166227    2.4410870711
H       -4.7956452742    4.8486854760   -3.3286639981
H       -2.3307081340    5.1144912880   -2.9539951838
H       -2.9622715025    0.6186457568    0.2506890174
H       -0.5334515820    0.7849525878    0.7448263245
H       -0.2161433947    4.2220667214   -1.8292945633
H       -6.0003021239    2.9848326613   -2.1863071644
H        0.2480855414    1.1448160015    4.8267502635
H       -1.0794165870    3.5191869357    4.2692274915
H       -0.2747430215    4.1444431049    1.9153253153
26   
torsion grid (-45,)
C       -4.2176176643    4.2602378176   -2.6034728874
C       -2.8646403292    4.3871248858   -2.3804622651
C       -2.3505521361    1.3445652033   -0.2669415878
C       -1.0082393626    1.4203818960    0.0170101965
C       -0.8111929301    3.4594171220   -1.3070367555
C       -4.9068490047    3.1595551677   -2.0281438459
C        0.4131947567    1.9794601959    4.0559790331
C       -0.4479732256    2.9751626231    3.6296510917
C       -2.2027871312    3.4167970650   -1.5823675201
C       -2.9912588006    2.3438328211   -1.0542121495
C       -0.2315147575    2.5049005023   -0.4926389178
C        0.9543640256    2.3851219928    2.0158108462
N       -4.3317659980    2.2318142664   -1.2845327596
N        1.2978677849    1.6481073097    3.0612221113
N        1.1871946633    2.5670351967   -0.3038703126
N        1.7188668912    2.4325760849    0.8290012320
N       -0.0879975434    3.2333677394    2.3262944521
H       -4.7620298114    4.9800409897   -3.2078337653
H       -2.2990004460    5.2133318012   -2.8052217138
H       -2.9585992267    0.5234801054    0.1007478713
H       -0.5265320300    0.6542451815    0.6170570015
H       -0.1919611787    4.2471130499   -1.7295895521
H       -5.9779247839    3.0488029976   -2.1958396126
H        0.4522899604    1.5065020219    5.0286288199
H       -1.2338800108    3.5229589487    4.1302046706
H       -0.5530304851    3.8683580526    1.6903094037
26   
torsion grid (-30,)
C       -4.1929610964    4.3464768203   -2.4863284841
C       -2.8408283361    4.4459215634   -2.2453350194
C       -2.3588453312    1.2334458699   -0.3924480033
C       -1.0169105559    1.2780411574   -0.0978966247
C       -0.7985784548    3.4213709548   -1.2406455446
C       -4.8925357904    3.2048635528   -2.0117427483
C        0.5141352511    2.2691143158    4.1423983342
C       -0.5155900184    3.0155182519    3.5889614969
C       -2.1889673017    3.4069107339   -1.5295532427
C       -2.9873980524    2.2979488511   -1.0996521709
C       -0.2297410998    2.3952727664   -0.5104980357
C        0.9422078997    2.3915051579    2.0351417792
N       -4.3272965288    2.2139681972   -1.3465619210
N        1.4193629900    1.9175463570    3.1822310001
N        1.1854306262    2.4000603000   -0.2986610595
N        1.6928207278    2.3163524268    0.8513436061
N       -0.2341562839    3.0889833479    2.2488779668
H       -4.7291420715    5.1188642811   -3.0301437821
H       -2.2682123442    5.3021969407   -2.5944953340
H       -2.9745750198    0.3902451774   -0.0938815685
H       -0.5397106132    0.4670213053    0.4447757431
H       -0.1760146694    4.2433187107   -1.5860502582
H       -5.9629996875    3.1153721746   -2.1950966620
H        0.6493233801    1.9918287443    5.1798344097
H       -1.3795878801    3.4985711504    4.0238398320
H       -0.8044572101    3.5344160949    1.5414914212
26   
torsion grid (-15,)
C       -4.1653233607    4.4091150919   -2.4094771642
C       -2.8160801290    4.4802969490   -2.1443489226
C       -2.3877671143    1.1496801886   -0.5010398078
C       -1.0477058617    1.1603280253   -0.1909735896
C       -0.7965689769    3.3734632489   -1.1798769948
C       -4.8822730894    3.2456589721   -2.0209920170
C        0.6164327568    2.5485814948    4.1848519301
C       -0.5540895004    3.0042034032    3.5925038769
C       -2.1825386988    3.3899308393   -1.4906895240
C       -2.9972149677    2.2632224264   -1.1459328917
C       -0.2444471579    2.2940735907   -0.5169172367
C        0.9426446585    2.4232379851    2.0565035573
N       -4.3347156454    2.2084035752   -1.4148986634
N        1.5313981030    2.2125663380    3.2338829827
N        1.1658799217    2.2504850516   -0.2834720851
N        1.6656069335    2.2379325774    0.8737613329
N       -0.3394848372    2.9203465425    2.2439526353
H       -4.6870905933    5.2208590849   -2.9081309305
H       -2.2317196029    5.3526837741   -2.4279304635
H       -3.0152158462    0.2959034282   -0.2628681416
H       -0.5832179062    0.3118946103    0.3036976341
H       -0.1656029268    4.2150845564   -1.4553030756
H       -5.9507795964    3.1788484884   -2.2243496373
H        0.8349969193    2.4626858328    5.2414690879
H       -1.4811657735    3.3770894923    4.0059701631
H       -1.0004427439    3.1677177270    1.5192451136
26   
torsion grid (0,)
C       -4.2588941013    4.7815815147   -0.9722838836
C       -2.8844411370    4.7451511924   -0.9049272785
C       -2.4393125920    1.0648943826   -0.4223210229
C       -1.0680026955    0.9571697199   -0.3524384506
C       -0.8217921935    3.3629769616   -0.6490099174
C       -4.9845579897    3.5649608459   -0.8577341128
C        1.7977420360    1.0197710991   -4.6961856313
C        0.4390446190    1.2502998176   -4.5217154174
C       -2.2339447712    3.4952656703   -0.7229505997
C       -3.0607982848    2.3304107963   -0.6157659825
C       -0.2496132186    2.1157613476   -0.4892114097
C        1.5373551389    1.4723911828   -2.6023877298
N       -4.4239303205    2.3825354029   -0.6867266219
N        2.4585493178    1.1595841860   -3.5151304088
N        1.1671693727    1.9845166173   -0.3287840428
N        1.9359088455    1.6807223112   -1.2790014613
N        0.2820210850    1.5366470755   -3.1943596369
H       -4.7941037042    5.7167807907   -1.1095008735
H       -2.2926016905    5.6539151513   -0.9868843741
H       -3.0799257062    0.1929531211   -0.3287365368
H       -0.5904776089   -0.0067034206   -0.1993653042
H       -0.1876628113    4.2427273368   -0.7277215262
H       -6.0728625546    3.5811024018   -0.9108086961
H        2.3148373723    0.7641320106   -5.6121086931
H       -0.3955778837    1.2335454521   -5.2093827567
H       -0.5918678978    1.7487795842   -2.7319541150
26   
torsion grid (15,)
C       -4.3733478525    4.7654269752   -0.8040314331
C       -2.9987354316    4.7905487923   -0.7291413906
C       -2.3705168135    1.1063262586   -0.6257642946
C       -0.9970700747    1.0580809435   -0.5664013649
C       -0.8705990625    3.4923321589   -0.5918273857
C       -5.0372660747    3.5094413676   -0.8214114492
C        1.7625058809    0.6087139123   -4.5820999792
C        0.5097132800    1.2060630231   -4.5364436929
C       -2.2871716265    3.5625736091   -0.6725794973
C       -3.0546211288    2.3532076789   -0.6925340666
C       -0.2361168601    2.2652201826   -0.5680027945
C        1.5515699708    1.3892428210   -2.5826899221
N       -4.4179137783    2.3447585727   -0.7677230778
N        2.3976084408    0.7431068241   -3.3848417759
N        1.1835607179    2.2023030618   -0.4025878778
N        1.9519606851    1.7448881783   -1.2905246527
N        0.3820150188    1.6941014129   -3.2647233241
H       -4.9544078143    5.6820876701   -0.8482306167
H       -2.4532213515    5.7313005538   -0.7108149579
H       -2.9678458037    0.1993681854   -0.6246957173
H       -0.4739498535    0.1071031106   -0.5185499586
H       -0.2800265005    4.4046561866   -0.5565654860
H       -6.1248319168    3.4766432350   -0.8817174718
H        2.2276383423    0.1065885424   -5.4206030396
H       -0.2662461415    1.3263031094   -5.2800169277
H       -0.4198831233    2.1859469142   -2.8927025404
26   
torsion grid (30,)
C       -4.4420316591    4.7494547523   -0.6851468331
C       -3.0689870697    4.8136536742   -0.6023157971
C       -2.3175543071    1.1543496214   -0.7735358603
C       -0.9441633380    1.1466473979   -0.7176242231
C       -0.8997671514    3.5784660473   -0.5509916367
C       -5.0623271734    3.4768068906   -0.8010298889
C        1.6630002826    0.3361750362   -4.4421345845
C        0.5695980574    1.1843488355   -4.5356677844
C       -2.3169179904    3.6094289414   -0.6369541158
C       -3.0428962454    2.3798591454   -0.7516491862
C       -0.2234052484    2.3755333960   -0.6247405737
C        1.5512200525    1.3624257954   -2.5524810750
N       -4.4046327655    2.3320956881   -0.8327139553
N        2.2764114893    0.4776536076   -3.2303704365
N        1.1980425359    2.3714436684   -0.4613394543
N        1.9722723963    1.8387099659   -1.3008119038
N        0.5079997242    1.8348559935   -3.3300514071
H       -5.0535140091    5.6468877046   -0.6619115963
H       -2.5550747493    5.7677307998   -0.5095114822
H       -2.8850458914    0.2307027723   -0.8374467478
H       -0.3927386900    0.2110172048   -0.7380369436
H       -0.3382921241    4.5023561426   -0.4343302698
H       -6.1480203297    3.4121892078   -0.8688018185
H        2.0399070119   -0.3455520752   -5.1935380188
H       -0.1285035208    1.3866322975   -5.3360899609
H       -0.1975921414    2.5024093875   -3.0462624259
26   
torsion grid (45,)
C       -4.4948420780    4.7123483633   -0.5664157085
C       -3.1240262891    4.8095079911   -0.4780547549
C       -2.2691007342    1.1955066433   -0.9211862571
C       -0.8962728230    1.2205908391   -0.8672500215
C       -0.9224583862    3.6340016827   -0.5163604926
C       -5.0788158198    3.4351158295   -0.7790006219
C        1.5145497532    0.1143047424   -4.2749609932
C        0.6303713889    1.1466946593   -4.5341792283
C       -2.3389715912    3.6328999607   -0.6039481599
C       -3.0292811036    2.3950702077   -0.8116153697
C       -0.2118428735    2.4603576340   -0.6835512067
C        1.5524310021    1.3672338113   -2.5291935164
N       -4.3890172865    2.3149825932   -0.8967430885
N        2.1045148825    0.2807773158   -3.0477062442
N        1.2104520042    2.5170155465   -0.5218242785
N        1.9990033687    1.9504317422   -1.3226635489
N        0.6684102157    1.9472393159   -3.4149560576
H       -5.1318738611    5.5873872708   -0.4755373707
H       -2.6370719705    5.7678963550   -0.3126810895
H       -2.8109269444    0.2632575627   -1.0493992906
H       -0.3235412279    0.3018456868   -0.9505276263
H       -0.3853127422    4.5595877769   -0.3234406378
H       -6.1623616702    3.3449567309   -0.8523899812
H        1.7683660680   -0.7197052205   -4.9162597299
H        0.0249911051    1.3889938607   -5.3962067417
H        0.0953411082    2.7629651133   -3.2413682900
26   
torsion grid (60,)
C       -4.5463654310    4.6628506268   -0.4697423291
C       -3.1779084262    4.7826976332   -0.3752584660
C       -2.2483315801    1.2203756585   -1.0384290338
C       -0.8758628464    1.2695021994   -0.9850592761
C       -0.9542027347    3.6564305768   -0.4848651851
C       -5.1029431283    3.3887716817   -0.7611923960
C        1.3710514471   -0.0345657421   -4.1172963229
C        0.7125386243    1.0971639426   -4.5527742488
C       -2.3692195912    3.6323817779   -0.5739964496
C       -3.0327071147    2.3950325511   -0.8579951962
C       -0.2184700037    2.5110832247   -0.7278266173
C        1.5514318844    1.3900403854   -2.5221857772
N       -4.3906814068    2.2922800079   -0.9474873022
N        1.9176336255    0.1709039356   -2.8684022162
N        1.2026163678    2.6275875415   -0.5753502300
N        2.0107589296    2.0661168763   -1.3572198443
N        0.8477921892    2.0123657794   -3.5253969368
H       -5.2018291513    5.5168169553   -0.3254088883
H       -2.7103645525    5.7387656409   -0.1509835912
H       -2.7708816086    0.2859630140   -1.2196772390
H       -0.2900000058    0.3659573249   -1.1169514390
H       -0.4343503119    4.5775196113   -0.2325087149
H       -6.1844912009    3.2807472358   -0.8403609782
H        1.4974435124   -0.9736651685   -4.6400552939
H        0.2085020370    1.3390186346   -5.4775081981
H        0.4364409909    2.9357645642   -3.4832404600
26   
torsion grid (75,)
C       -4.5657150668    4.6508053922   -0.3910306214
C       -3.1977819200    4.7788510402   -0.3041483852
C       -2.2470038822    1.2417701383   -1.0619793121
C       -0.8735106891    1.2974976434   -1.0178045663
C       -0.9682147417    3.6704240762   -0.4593679386
C       -5.1156608764    3.3802861302   -0.7110474617
C        1.2731071542   -0.0958961618   -4.0328104784
C        0.8402421423    1.0725519387   -4.6173436400
C       -2.3826442523    3.6397141179   -0.5388497848
C       -3.0388478710    2.4048896254   -0.8494514131
C       -0.2237959147    2.5381193003   -0.7386843390
C        1.5416741484    1.4255448858   -2.5458606621
N       -4.3972236566    2.2944482385   -0.9309246730
N        1.7330060868    0.1394500430   -2.7491975487
N        1.1965272936    2.6956394136   -0.6147767570
N        2.0087302458    2.1647059842   -1.4099874839
N        1.0328308708    2.0518392934   -3.6533982740
H       -5.2264803738    5.4956250794   -0.2197352689
H       -2.7352005045    5.7322779970   -0.0592938134
H       -2.7638353957    0.3072931450   -1.2585867238
H       -0.2856219570    0.3996059130   -1.1670277613
H       -0.4524927451    4.5883978091   -0.1883229891
H       -6.1971003224    3.2666306778   -0.7845573655
H        1.2932092824   -1.0887717986   -4.4626012501
H        0.4506751011    1.3002920519   -5.5990137533
H        0.7863312864    3.0302663868   -3.7270642969
26   
torsion grid (90,)
C       -3.6948196267    2.5172050801   -3.4473000866
C       -2.5257513298    3.1243557924   -3.0484769350
C       -3.1178229844    3.1288379932    0.6444961260
C       -1.9634746066    3.7064390226    1.1216739689
C       -1.1319900927    3.9635648764   -1.1587763389
C       -4.6338477654    2.1233420077   -2.4557024740
C        0.1223474096    1.9390182774    3.9623080437
C        0.7600248934    1.1431696957    3.0408833453
C       -2.2962284886    3.3343453726   -1.6624670951
C       -3.3099825971    2.9035388516   -0.7464288267
C       -0.9424459193    4.1025791577    0.2058787929
C        0.6357281668    3.2399450649    2.3351257267
N       -4.4655503965    2.3036327542   -1.1588483140
N        0.0633046995    3.2512111294    3.5198456750
N        0.2831815730    4.7487905457    0.5714996225
N        0.9888227493    4.3858505916    1.5417134267
N        1.0979082579    1.9975157626    1.9978143452
H       -3.9113688402    2.3362322670   -4.4961361791
H       -1.7805157229    3.4440402354   -3.7733321914
H       -3.9149335723    2.8321994808    1.3195351765
H       -1.8385364187    3.8870402661    2.1818605391
H       -0.3679421479    4.3324325055   -1.8386306910
H       -5.5625317980    1.6400523687   -2.7588941187
H       -0.2946995106    1.6510398785    4.9183139319
H        1.0030027301    0.0906731423    3.0236589346
H        1.5940583489    1.7549655494    1.1503290326
26   
torsion grid (105,)
C       -4.3788651436    3.4541515184   -3.1824061438
C       -3.1422719089    3.9576801472   -2.8464395303
C       -2.3698895799    1.7021458441    0.0335097746
C       -1.1438239401    2.1675762788    0.4446026334
C       -1.1590374170    3.8223329954   -1.3422854676
C       -4.9067180347    2.3753435508   -2.4235326276
C       -0.4243872922    2.9395214559    4.0325430155
C        0.4498403056    1.8821560756    3.9288968275
C       -2.4407739538    3.3846962082   -1.7529018190
C       -3.0629616530    2.3008682128   -1.0555070391
C       -0.5274549116    3.2608821177   -0.2428826724
C        0.7486161699    3.3346391132    2.2828309515
N       -4.2876943239    1.8093823264   -1.4028892227
N       -0.2351459384    3.8382056794    2.9959596123
N        0.7610308947    3.8392483800   -0.0041042783
N        1.3422244869    3.8849977465    1.1082369580
N        1.2066354109    2.1486683038    2.7929377236
H       -4.9529556746    3.8627030579   -4.0088974732
H       -2.6987356912    4.7821883070   -3.3997809679
H       -2.8468582640    0.8657658435    0.5356243403
H       -0.6523178260    1.6767404154    1.2735187254
H       -0.6519210886    4.6204033126   -1.8780308528
H       -5.8847905581    1.9681743257   -2.6795023810
H       -1.1771184904    3.1095172692    4.7911825994
H        0.6120803500    1.0027232962    4.5352361425
H        1.9962095566    1.6198687941    2.4454294070
26   
torsion grid (120,)
C       -4.4775289389    3.5797780103   -2.9363956274
C       -3.2240413367    4.0661261328   -2.6389302516
C       -2.1930264151    1.4893596499   -0.1334246604
C       -0.9466661858    1.9354339168    0.2330585806
C       -1.1207985281    3.7960217617   -1.3275277346
C       -4.9289294362    2.4045082216   -2.2789824290
C       -0.6629795647    3.0780458122    3.8011732515
C        0.2810602720    2.0930183058    3.9995725646
C       -2.4274348105    3.3807224985   -1.6842763277
C       -2.9782808208    2.2048414405   -1.0806910432
C       -0.4071892019    3.1189891852   -0.3558838314
C        0.7234953762    3.2704232095    2.1774104548
N       -4.2209471479    1.7323296967   -1.3890382760
N       -0.3849097206    3.7991953776    2.6571007863
N        0.9165182335    3.6093403406   -0.1215202877
N        1.4503600839    3.6483982850    1.0154021319
N        1.1756214360    2.2331229687    2.9494919863
H       -5.1214006494    4.0742887628   -3.6579681749
H       -2.8383445666    4.9624228896   -3.1192594257
H       -2.6148771364    0.5839997301    0.2925198914
H       -0.3664328276    1.3698761886    0.9534429184
H       -0.6718236364    4.6650974950   -1.8014379132
H       -5.9193140219    2.0096704131   -2.5052854389
H       -1.5223517789    3.3092408074    4.4169587175
H        0.4014523049    1.3383288609    4.7633789557
H        2.0324487452    1.7161019305    2.7990874061
26   
torsion grid (135,)
C       -4.5032589717    3.6715203539   -2.8609797070
C       -3.2438113184    4.1381204203   -2.5556579571
C       -2.1598535960    1.3943124687   -0.2587142638
C       -0.9076486751    1.8177509900    0.1117840005
C       -1.1128442007    3.7844779387   -1.3099349509
C       -4.9398923042    2.4521733986   -2.2790893454
C       -0.7418292059    3.1051923273    3.7411822099
C        0.2880675241    2.2646315785    4.1203809508
C       -2.4262843493    3.3899439016   -1.6685424786
C       -2.9643981884    2.1732695411   -1.1380988907
C       -0.3835465237    3.0414429239   -0.4027419404
C        0.6943306391    3.1904025562    2.1504079790
N       -4.2124753253    1.7207125308   -1.4536037356
N       -0.4848388201    3.6678669447    2.5126801802
N        0.9554593841    3.4723911627   -0.1500023774
N        1.4645301765    3.4763680135    1.0005977071
N        1.2100691245    2.3400676954    3.0947929181
H       -5.1620549567    4.2146034158   -3.5325289549
H       -2.8691684508    5.0668354262   -2.9799857960
H       -2.5721514315    0.4598026652    0.1098475881
H       -0.3050045683    1.2115443587    0.7807463548
H       -0.6772993105    4.6878600863   -1.7291930401
H       -5.9343842395    2.0717265687   -2.5119948217
H       -1.6460756384    3.3359597108    4.2893707371
H        0.4416684638    1.6463068814    4.9930877002
H        2.1170309843    1.8933374463    3.0461539645
26   
torsion grid (150,)
C       -4.5239846120    3.7458238395   -2.8186958102
C       -3.2581090438    4.1840928794   -2.4973832033
C       -2.1744565781    1.2975601764   -0.3831259835
C       -0.9159837783    1.6896004253   -0.0007443189
C       -1.1181191492    3.7412004114   -1.2961854959
C       -4.9650023012    2.4963290550   -2.3091516435
C       -0.7498971938    3.0443448608    3.7327680861
C        0.3857029971    2.4249322067    4.2306315112
C       -2.4379815882    3.3776284913   -1.6657546004
C       -2.9808779192    2.1344670534   -1.2060763874
C       -0.3873901646    2.9385636715   -0.4436615033
C        0.6837236114    3.0793888482    2.1348707708
N       -4.2351798523    1.7109049965   -1.5369672612
N       -0.5577789217    3.4393429453    2.4342763780
N        0.9624072712    3.3197046868   -0.1749333568
N        1.4576089868    3.3032350003    0.9830581023
N        1.2980404463    2.4701097287    3.2024559880
H       -5.1844371122    4.3339217450   -3.4495446463
H       -2.8805580660    5.1344807150   -2.8678777003
H       -2.5904139128    0.3452239636   -0.0680082915
H       -0.3087267428    1.0444034516    0.6269472539
H       -0.6814484293    4.6663953120   -1.6636147212
H       -5.9643581324    2.1377021640   -2.5556541136
H       -1.6847161272    3.2268488421    4.2471060040
H        0.6095967842    1.9758621708    5.1876391432
H        2.2585937629    2.1502366477    3.2111701434
26   
torsion grid (165,)
C       -4.5613261120    3.7896465595   -2.7737238389
C       -3.2873390396    4.1984146310   -2.4449440431
C       -2.2132953455    1.1975368192   -0.4921656852
C       -0.9462560835    1.5559705465   -0.1056778890
C       -1.1395345532    3.6731464391   -1.2915872732
C       -5.0120229792    2.5212260098   -2.3231898869
C       -0.7331222122    2.9526210157    3.7228934838
C        0.4913299220    2.6180437302    4.2865907584
C       -2.4676214490    3.3424600363   -1.6642118874
C       -3.0195723472    2.0832671042   -1.2624616751
C       -0.4086973673    2.8197103969   -0.4906036733
C        0.6817121267    2.9661688046    2.1047487215
N       -4.2823545418    1.6905598868   -1.5997077442
N       -0.6051268032    3.1629675487    2.3780088415
N        0.9512350570    3.1585025585   -0.2185157396
N        1.4434610949    3.1363605917    0.9416546581
N        1.3825527116    2.6468776440    3.2461051811
H       -5.2214094381    4.4158079827   -3.3672621544
H       -2.9033339101    5.1622221890   -2.7717705619
H       -2.6368729715    0.2355848558   -0.2191539330
H       -0.3385841651    0.8771776470    0.4851756623
H       -0.6976571730    4.6113440439   -1.6177259303
H       -6.0179917596    2.1863453575   -2.5763373109
H       -1.6874432345    3.0536711803    4.2239826486
H        0.7827064844    2.3736083008    5.2980966778
H        2.3827426717    2.4912167944    3.2776899375
26   
torsion grid (180,)
C       -4.5464874495    3.8672372104   -2.7488814558
C       -3.2681567939    4.2411413993   -2.3961257957
C       -2.2486725445    1.1410352426   -0.5721392416
C       -0.9791095748    1.4641135954   -0.1635186937
C       -1.1336364738    3.6332918747   -1.2593317539
C       -5.0168588867    2.5867355111   -2.3564791299
C       -0.7219426113    2.8246295329    3.7548516201
C        0.5395832244    2.8072764369    4.3388919155
C       -2.4650448495    3.3394733836   -1.6504548877
C       -3.0367806155    2.0716447256   -1.3072455827
C       -0.4201241144    2.7338351319   -0.4927291068
C        0.6813707049    2.8554573192    2.1245409771
N       -4.3035698260    1.7136775499   -1.6673652271
N       -0.6234437476    2.8560305426    2.3933611612
N        0.9440032150    3.0395371887   -0.2071601052
N        1.4334957815    2.9988606952    0.9544814568
N        1.4168648342    2.8347079737    3.2906299767
H       -5.1942604542    4.5287279527   -3.3171796788
H       -2.8680441795    5.2125000500   -2.6783415444
H       -2.6887662516    0.1756767117   -0.3404193492
H       -0.3860774003    0.7543066627    0.4047902326
H       -0.6744419888    4.5760495562   -1.5464086056
H       -6.0263001335    2.2781701544   -2.6285748420
H       -1.6827533984    2.8178073010    4.2538653919
H        0.8611158143    2.7768576804    5.3702092033
H        2.4289003990    2.8628231102    3.3223202013
