30   
torsion grid (-165,)
C       -1.4831976978    0.9498741135    0.8545644083
C       -1.2328843323   -0.2605939094    1.5140112212
C       -0.4926290865    1.5155800939    0.0472775645
C        5.5201485328    1.2213133468   -1.3426119661
C       -0.0016993597   -0.8969109730    1.3688509007
C        0.7443063276    0.8819122689   -0.0928105440
C        5.1888596445   -0.0216835759   -1.8735296293
C        4.8785286908    1.6959477197   -0.1930801880
C        1.0067424060   -0.3261701723    0.5726808775
C        3.4642509687   -0.3164044851   -0.1651247521
C        4.1856367256   -0.8055009524   -1.2782701977
C        3.8767649914    0.9158701840    0.3637342519
C        2.2913820006   -1.0575560074    0.3842141548
C        3.7479872789   -3.2536019373   -1.1132333301
C        3.5305015737   -3.0669954605    0.3858914491
N        2.3058451506   -2.3215734589    0.6242682467
N        3.8958831427   -2.0664876154   -1.8294294363
O        3.7869573890   -4.3352902979   -1.6761732646
F        3.2655245914    1.3716641359    1.4817575056
H       -2.4442606129    1.4450823132    0.9675478101
H       -2.0008856762   -0.7072627334    2.1402709210
H       -0.6828263791    2.4484395234   -0.4770424517
H        6.3034496573    1.8141025112   -1.8059227130
H        0.2002314671   -1.8400250276    1.8655373093
H        1.4969439142    1.3247735956   -0.7380533497
H        5.7216524006   -0.4076503589   -2.7385719778
H        5.1454256002    2.6396641787    0.2709858951
H        3.4434879138   -4.0611951387    0.8231519320
H        4.4183139918   -2.5674106345    0.8041435585
H        4.1825875398   -2.2238091206   -2.7907809056
30   
torsion grid (-150,)
C       -1.4500296801    0.9984678765    0.8938794878
C       -1.1308070451   -0.1134267344    1.6833184221
C       -0.5559916329    1.4308378743   -0.0904759332
C        5.5194330084    1.2430042149   -1.2499579137
C        0.0729571171   -0.7897684564    1.4875018804
C        0.6549935872    0.7611336551   -0.2787614727
C        5.2290728123    0.0064323928   -1.8182486488
C        4.8187351332    1.6899526246   -0.1239930900
C        0.9777857086   -0.3570939483    0.5053288894
C        3.4370095402   -0.3438619859   -0.1901525436
C        4.2099956724   -0.8001111911   -1.2831711104
C        3.8036599190    0.8881348688    0.3742463412
C        2.2481224802   -1.1034162701    0.2910801774
C        3.7565766937   -3.2549977633   -1.2177152756
C        3.4710288483   -3.1211306560    0.2746511745
N        2.2421009738   -2.3737887913    0.4924307950
N        3.9511152860   -2.0451388871   -1.8824911326
O        3.8125864557   -4.3159047617   -1.8177992142
F        3.1366807050    1.3184093093    1.4694002382
H       -2.3888674520    1.5246007806    1.0467843290
H       -1.8211616896   -0.4499942981    2.4525015009
H       -0.8009191357    2.2893294945   -0.7104499190
H        6.3146421408    1.8542170085   -1.6667569532
H        0.3285557772   -1.6580965814    2.0862671557
H        1.3433793619    1.1014238662   -1.0476577874
H        5.8028619440   -0.3548656664   -2.6676155775
H        5.0500655813    2.6299530104    0.3659478826
H        3.3585130358   -4.1299499377    0.6706295176
H        4.3418422632   -2.6436861518    0.7506430767
H        4.2816987047   -2.1725674678   -2.8341160729
30   
torsion grid (-135,)
C       -1.4047065815    1.0422338276    0.9160721410
C       -0.9970780876    0.0438362738    1.8086950039
C       -0.6290196088    1.3252553521   -0.2131147386
C        5.5303612716    1.2605983696   -1.1501186125
C        0.1766908786   -0.6726769813    1.5705445933
C        0.5536278425    0.6191998102   -0.4439221743
C        5.2771919820    0.0337350293   -1.7555946146
C        4.7747861772    1.6790924763   -0.0490222162
C        0.9550076002   -0.3946450801    0.4381514859
C        3.4220069781   -0.3697720356   -0.2112913754
C        4.2432997970   -0.7929352602   -1.2831699089
C        3.7473440704    0.8579954241    0.3882284656
C        2.2192832046   -1.1462887753    0.2003764253
C        3.7804976821   -3.2499323583   -1.3207598439
C        3.4328035367   -3.1685848196    0.1611831587
N        2.1992474013   -2.4212987821    0.3614351099
N        4.0154818937   -2.0191605663   -1.9309916935
O        3.8544902118   -4.2884471107   -1.9572468967
F        3.0286878359    1.2626713437    1.4596095018
H       -2.3194107171    1.5992617730    1.1021040921
H       -1.5925390174   -0.1717214009    2.6921286538
H       -0.9424960321    2.0983796365   -0.9098339524
H        6.3368739437    1.8875582717   -1.5190945480
H        0.5006862066   -1.4527645621    2.2526082984
H        1.1605756433    0.8481712966   -1.3164140013
H        5.8893764629   -0.3033148369   -2.5879737366
H        4.9727408635    2.6123970353    0.4676173511
H        3.2995109333   -4.1903624389    0.5151408921
H        4.2846381024   -2.7134441961    0.6904578808
H        4.3872179417   -2.1155548856   -2.8709686963
30   
torsion grid (-120,)
C       -1.3622346938    1.0780208959    0.9094490980
C       -0.8459617749    0.2298685512    1.8958252304
C       -0.7171774396    1.1817669208   -0.3274719914
C        5.5515488611    1.2704157421   -1.0381257853
C        0.3055415135   -0.5188822499    1.6451016925
C        0.4438047253    0.4441696314   -0.5725869186
C        5.3189646536    0.0603542032   -1.6838450352
C        4.7617783259    1.6581144187    0.0499171873
C        0.9461568995   -0.4278210504    0.4029580573
C        3.4219254017   -0.3918802434   -0.2007515524
C        4.2732857621   -0.7795676072   -1.2638334218
C        3.7243291665    0.8239515735    0.4354352625
C        2.2093973250   -1.1829951219    0.1494472890
C        3.7994066509   -3.2333988553   -1.4110585348
C        3.4102704926   -3.2114402582    0.0617845209
N        2.1768214660   -2.4618040717    0.2615631272
N        4.0621940026   -1.9808479043   -1.9621137275
O        3.8822909031   -4.2446880477   -2.0890537813
F        2.9755379766    1.2024268935    1.4954075968
H       -2.2593220729    1.6594948928    1.1060445839
H       -1.3381093404    0.1569587251    2.8622382618
H       -1.1132465773    1.8405938489   -1.0959565385
H        6.3667589764    1.9087012287   -1.3662507362
H        0.7126219261   -1.1798632400    2.4045884164
H        0.9558932840    0.5369798327   -1.5274269930
H        5.9540756737   -0.2522135639   -2.5086110660
H        4.9404187420    2.5786781989    0.5956620532
H        3.2592545349   -4.2454268152    0.3702030296
H        4.2492737421   -2.7846849069    0.6331420800
H        4.4598775940   -2.0420355399   -2.8943997402
30   
torsion grid (-105,)
C       -1.3861765541    1.0786914923    0.8619806559
C       -0.7321425531    0.4645992648    1.9358979976
C       -0.8714445473    0.9476815896   -0.4317741003
C        5.5831523828    1.2566148930   -0.9185978168
C        0.4282223665   -0.2815939745    1.7183209940
C        0.2946999847    0.2075977040   -0.6475766226
C        5.3204404912    0.0849471772   -1.6209153397
C        4.8120516070    1.6018360979    0.1964992204
C        0.9367407489   -0.4283162011    0.4227239121
C        3.4308179842   -0.4093866714   -0.1413539482
C        4.2635586112   -0.7565633739   -1.2336569753
C        3.7641600003    0.7668738689    0.5504123738
C        2.2006868474   -1.1926490107    0.1667091615
C        3.7420911454   -3.1892633632   -1.5096698808
C        3.3571208955   -3.2378552387   -0.0370521953
N        2.1386554082   -2.4730113832    0.1997005270
N        4.0225870372   -1.9137530341   -1.9948923352
O        3.8047178587   -4.1644677789   -2.2405694272
F        3.0370438866    1.1030218222    1.6399413375
H       -2.2894128055    1.6586634127    1.0332244869
H       -1.1236007759    0.5711421817    2.9443012291
H       -1.3739355500    1.4230037169   -1.2702808977
H        6.4067342991    1.8957206118   -1.2233264253
H        0.9400081412   -0.7557001386    2.5508266471
H        0.7011395043    0.1123603521   -1.6517331312
H        5.9408734447   -0.1968421417   -2.4676385400
H        5.0129660636    2.4895757939    0.7870533835
H        3.1834875417   -4.2827740582    0.2176570512
H        4.2045839512   -2.8585529861    0.5545289647
H        4.4132102093   -1.9312277627   -2.9320202747
30   
torsion grid (-90,)
C       -1.2812253309    0.6788596012    0.6463599432
C       -0.4929038813    0.4159842121    1.7714294291
C       -0.8255729412    0.3044926318   -0.6217511796
C        5.8069471133    1.3765410287   -0.7886966423
C        0.7486890346   -0.2099599876    1.6321448501
C        0.4136420158   -0.3263235784   -0.7611857107
C        5.5657208240    0.2572230948   -1.5781994785
C        5.0548599047    1.5995419082    0.3693071412
C        1.2052911774   -0.5911519379    0.3652194326
C        3.7296431931   -0.4215963624   -0.1028574510
C        4.5481345284   -0.6500750456   -1.2375281056
C        4.0455046931    0.7015921169    0.6776630397
C        2.5272328332   -1.2719648806    0.1447278750
C        4.1296533633   -3.0738526069   -1.6922240003
C        3.7649817002   -3.2454469930   -0.2240065718
N        2.5155317263   -2.5506715971    0.0620297108
N        4.3340777084   -1.7525260075   -2.0846417798
O        4.2304228794   -3.9884105641   -2.4936642671
F        3.3432350030    0.9182946071    1.8144516645
H       -2.2452652436    1.1685613018    0.7575882624
H       -0.8438567489    0.6990114199    2.7604946202
H       -1.4346677656    0.4988405287   -1.5008175673
H        6.6005097093    2.0671822966   -1.0584044799
H        1.3540416835   -0.4145478906    2.5090981115
H        0.7654048605   -0.6267102419   -1.7449787922
H        6.1745777644    0.0656455126   -2.4579127456
H        5.2427439648    2.4403288346    1.0287676458
H        3.6366209261   -4.3119376907   -0.0424423079
H        4.6002459554   -2.8723328908    0.3881172658
H        4.7107694355   -1.6812670397   -3.0249545761
30   
torsion grid (-75,)
C       -1.3186788114    0.6293428406    0.5462664074
C       -0.4487143829    0.6830471914    1.6391478543
C       -0.9257067988   -0.0422210000   -0.6159397946
C        5.8745153725    1.3432434241   -0.6625996733
C        0.8148488569    0.0883425616    1.5708813594
C        0.3298086118   -0.6496664058   -0.6813473742
C        5.5464191643    0.2984993260   -1.5202043938
C        5.2030637753    1.4910075348    0.5549361246
C        1.2153883893   -0.5823351389    0.4074993443
C        3.7654895502   -0.4308158373    0.0001048474
C        4.5175543926   -0.5993391388   -1.1895830434
C        4.1791557943    0.6047022493    0.8496896787
C        2.5418819117   -1.2651967252    0.2249850712
C        4.0491580712   -2.9841494028   -1.7603567447
C        3.7436189468   -3.2291528840   -0.2878402049
N        2.5108726700   -2.5368082553    0.0632065667
N        4.2316154254   -1.6421125809   -2.0913531636
O        4.1135609117   -3.8558553079   -2.6115921715
F        3.5659344106    0.7434016850    2.0507019743
H       -2.2972986576    1.0991430773    0.6025649063
H       -0.7535533255    1.1864050861    2.5531038364
H       -1.5978523421   -0.0999591459   -1.4682677578
H        6.6765088806    2.0270899295   -0.9243888508
H        1.4689743978    0.1256299911    2.4324835843
H        0.6312613106   -1.1872419647   -1.5757761793
H        6.0994768547    0.1541150648   -2.4446339261
H        5.4651188489    2.2627831071    1.2710872724
H        3.6104151182   -4.3021629094   -0.1547297593
H        4.6051124653   -2.8937713247    0.3094953385
H        4.5638941540   -1.5201393182   -3.0431698194
30   
torsion grid (-60,)
C       -1.3547936052    0.5975349352    0.4891354309
C       -0.3952652951    0.9184773730    1.4534677838
C       -1.0351541237   -0.3136278169   -0.5227427029
C        5.9152964932    1.3400593437   -0.5376534212
C        0.8805874074    0.3491093843    1.4055241577
C        0.2328471654   -0.8946516660   -0.5650645169
C        5.5306678997    0.3768837718   -1.4652104517
C        5.2968427607    1.3956535693    0.7153393225
C        1.2103542695   -0.5631873844    0.3913636044
C        3.7753033681   -0.4187884004    0.0482782247
C        4.4906974950   -0.5198274112   -1.1696526450
C        4.2581371614    0.5147282382    0.9734164802
C        2.5378769327   -1.2458885686    0.2399357203
C        4.0051857050   -2.8677329631   -1.8381926830
C        3.7390046434   -3.1807862268   -0.3682389840
N        2.5093231128   -2.5118163853    0.0303135634
N        4.1659150028   -1.5103276527   -2.1172571039
O        4.0517893017   -3.7024738472   -2.7267483399
F        3.7079355514    0.5462622445    2.2150043171
H       -2.3428565545    1.0489946179    0.5283007804
H       -0.6395579226    1.6123275577    2.2538008852
H       -1.7734117399   -0.5755651887   -1.2763733748
H        6.7259553159    2.0238201702   -0.7714387579
H        1.5992439008    0.6022041785    2.1725667036
H        0.4810198009   -1.6137364509   -1.3390512471
H        6.0523307358    0.2908407438   -2.4148103143
H        5.6140811160    2.0895753898    1.4867135601
H        3.6154516057   -4.2596128186   -0.2808787657
H        4.6125015088   -2.8667148632    0.2231430976
H        4.4685456099   -1.3434473665   -3.0721778796
30   
torsion grid (-45,)
C       -1.3812167909    0.5840835572    0.5038671924
C       -0.3331583850    1.0991673970    1.2715005603
C       -1.1426552056   -0.5049175147   -0.3415560429
C        5.9465982400    1.3364469431   -0.4129287870
C        0.9455432765    0.5403428219    1.1948239082
C        0.1298446224   -1.0707329097   -0.4128074670
C        5.5492683495    0.4386164435   -1.3996051529
C        5.3267912723    1.3259961826    0.8407303820
C        1.1951935116   -0.5529894183    0.3490429711
C        3.7675037681   -0.4052247994    0.0524996092
C        4.4915519436   -0.4540609397   -1.1618651897
C        4.2693679818    0.4512328885    1.0387929689
C        2.5225434641   -1.2307168842    0.1990943174
C        4.0050453162   -2.7685162873   -1.9232690806
C        3.7392683721   -3.1379518335   -0.4642687376
N        2.5058992549   -2.4922076379   -0.0434781277
N        4.1635371258   -1.4010381874   -2.1522235608
O        4.0538600696   -3.5707125397   -2.8411645311
F        3.7141098972    0.4092506486    2.2788101054
H       -2.3723937266    1.0265366606    0.5626343609
H       -0.5091647581    1.9387176113    1.9391178560
H       -1.9479869027   -0.9130902567   -0.9468660487
H        6.7716547943    2.0168989972   -0.6015852339
H        1.7310686471    0.9552603242    1.8107283765
H        0.3193802721   -1.9202641808   -1.0598686820
H        6.0773531279    0.3970884628   -2.3486451089
H        5.6577967640    1.9614034256    1.6555962286
H        3.6223926398   -4.2201183760   -0.4192437082
H        4.6113366667   -2.8431389913    0.1390609408
H        4.4674126835   -1.1975149327   -3.0995848766
30   
torsion grid (-30,)
C       -1.3924295273    0.5844006816    0.5608866811
C       -0.2758055169    1.2376856855    1.0880449496
C       -1.2261655029   -0.6386821442   -0.0997094118
C        5.9651391927    1.3251772251   -0.2844578027
C        0.9979024453    0.6771241271    0.9595585462
C        0.0424045827   -1.2013148649   -0.2240814753
C        5.5872324456    0.4747891427   -1.3200364376
C        5.3066913734    1.2725171342    0.9484483283
C        1.1767217918   -0.5509650040    0.3009933731
C        3.7504566522   -0.3999428621    0.0392127950
C        4.5114844675   -0.4120574309   -1.1520362081
C        4.2317382045    0.4055887915    1.0773887423
C        2.5016635555   -1.2251637350    0.1332735736
C        4.0329435942   -2.6942819159   -2.0033370158
C        3.7351860578   -3.1119183449   -0.5625668074
N        2.4953421126   -2.4811430420   -0.1419954058
N        4.2047938842   -1.3211649656   -2.1835324972
O        4.0983719106   -3.4663320670   -2.9456181038
F        3.6290498143    0.3229806174    2.2920366429
H       -2.3813277944    1.0250804023    0.6583950598
H       -0.3925696535    2.1871293081    1.6041017220
H       -2.0865726732   -1.1524067426   -0.5208533546
H        6.8048067347    2.0005913368   -0.4192274611
H        1.8389382873    1.2127568168    1.3777400359
H        0.1792143169   -2.1501909720   -0.7305898458
H        6.1453427845    0.4640118462   -2.2525703680
H        5.6203709313    1.8698871401    1.7982001167
H        3.6176857041   -4.1949949363   -0.5575755200
H        4.5957632200   -2.8400668406    0.0675600431
H        4.5336387091   -1.0879513202   -3.1155737911
30   
torsion grid (-15,)
C       -1.3849582566    0.6040068146    0.6295097298
C       -0.2277613142    1.3391873365    0.8956289110
C       -1.2723667039   -0.7150478662    0.1716015647
C        5.9643044787    1.3025264514   -0.1612605364
C        1.0321798458    0.7632591175    0.7118257747
C       -0.0173722133   -1.2904797584   -0.0108332889
C        5.6293288809    0.4812770484   -1.2344090891
C        5.2467467965    1.2281964150    1.0374280010
C        1.1572836602   -0.5583689038    0.2527168741
C        3.7284539590   -0.4144808300    0.0166424580
C        4.5409557295   -0.4015641985   -1.1392517656
C        4.1614343229    0.3663900007    1.0952132224
C        2.4754266454   -1.2336687700    0.0526187153
C        4.0711204619   -2.6504979830   -2.0812205853
C        3.7134248786   -3.1097138792   -0.6672323236
N        2.4678573602   -2.4802352860   -0.2648167861
N        4.2718619912   -1.2756954113   -2.2097406813
O        4.1639670822   -3.3929769387   -3.0446612887
F        3.4892961284    0.2696058173    2.2695946041
H       -2.3644214481    1.0535656110    0.7716442985
H       -0.3016919149    2.3647943319    1.2476717267
H       -2.1665424071   -1.2943706979   -0.0438102693
H        6.8138772536    1.9744300987   -0.2403545874
H        1.9079950505    1.3685561176    0.9081169315
H        0.0790001695   -2.3118084275   -0.3617775825
H        6.2293270168    0.4907239686   -2.1405566941
H        5.5213507623    1.8070030060    1.9131320898
H        3.5842852500   -4.1909552237   -0.7027574360
H        4.5544134568   -2.8700199098    0.0015245107
H        4.6432834312   -1.0184962758   -3.1191979533
30   
torsion grid (0,)
C       -1.3659361586    0.6267545490    0.6956916424
C       -0.2035348473    1.4010541167    0.7085958550
C       -1.2768332199   -0.7482370940    0.4413172569
C        5.9571999287    1.2694196727   -0.0556558042
C        1.0397538452    0.8075297229    0.4757965642
C       -0.0379127237   -1.3395075213    0.2067784148
C        5.6692011525    0.4668617255   -1.1558288462
C        5.1764685563    1.1891610410    1.1027206894
C        1.1405483071   -0.5688358175    0.2159808787
C        3.7055344948   -0.4373718999   -0.0122069500
C        4.5703713325   -0.4084516199   -1.1293420188
C        4.0836633223    0.3353573825    1.0941585994
C        2.4475232830   -1.2448986674   -0.0352087035
C        4.0985790456   -2.6181966774   -2.1672804514
C        3.6720484019   -3.1182724747   -0.7879431640
N        2.4265972329   -2.4777505276   -0.4033033790
N        4.3399694945   -1.2461327467   -2.2362855739
O        4.2160485404   -3.3275296527   -3.1527473584
F        3.3416170417    0.2432097219    2.2237537027
H       -2.3328451613    1.0881597064    0.8796339875
H       -0.2613308753    2.4693399162    0.9001581674
H       -2.1763247343   -1.3584439841    0.4290039080
H        6.8149117002    1.9351134231   -0.0828413415
H        1.9233252821    1.4358743985    0.4686490936
H        0.0422004686   -2.4029784820    0.0103401581
H        6.3113563189    0.4875565752   -2.0323916786
H        5.4063388647    1.7598280308    1.9964574665
H        3.5212856590   -4.1943180233   -0.8688406876
H        4.4914865224   -2.9228437049   -0.0789165332
H        4.7573127814   -0.9669087161   -3.1189265203
30   
torsion grid (15,)
C       -1.3459017129    0.6425685996    0.7454701519
C       -0.2116986488    1.4278709424    0.5228073298
C       -1.2436932558   -0.7535672408    0.6891637938
C        5.9431505162    1.2401595850    0.0356840025
C        1.0184733095    0.8235886733    0.2530449901
C       -0.0182903960   -1.3567393548    0.4134211989
C        5.6968244269    0.4580341761   -1.0887315078
C        5.1106531462    1.1525872855    1.1570870772
C        1.1291333296   -0.5746080325    0.1911147317
C        3.6845221284   -0.4559021122   -0.0397823697
C        4.5913425635   -0.4090356561   -1.1232224283
C        4.0136929210    0.3072653273    1.0902271195
C        2.4218008311   -1.2480051560   -0.1205838079
C        4.1079831395   -2.5714300211   -2.2625841837
C        3.6224697331   -3.1163293286   -0.9217981830
N        2.3813273066   -2.4636419246   -0.5407872619
N        4.3921807737   -1.2062564272   -2.2645954694
O        4.2401142232   -3.2415998423   -3.2733897303
F        3.2177004842    0.2146004838    2.1808027886
H       -2.3020710683    1.1125114357    0.9612079516
H       -0.2830042704    2.5118014194    0.5588914443
H       -2.1216340435   -1.3702561269    0.8637040516
H        6.8057015910    1.8998719075    0.0552402079
H        1.8857241357    1.4494971395    0.0669293476
H        0.0725183400   -2.4365633375    0.3631179488
H        6.3730679576    0.4917497983   -1.9388678342
H        5.3026235012    1.7133957001    2.0658592480
H        3.4484985882   -4.1838252145   -1.0536500058
H        4.4231422517   -2.9720430293   -0.1796321320
H        4.8475488797   -0.9038214348   -3.1203585284
30   
torsion grid (30,)
C       -1.3338328780    0.6550144349    0.7891351208
C       -0.2546039141    1.4223403798    0.3404674825
C       -1.1889182008   -0.7304975239    0.9342756195
C        5.9274402874    1.1996946756    0.1408930214
C        0.9659654367    0.8097106473    0.0480803407
C        0.0261875689   -1.3439186751    0.6317097956
C        5.7173163818    0.4335307662   -1.0015367452
C        5.0501232118    1.1098234008    1.2275263059
C        1.1181931052   -0.5779455843    0.1932471833
C        3.6627352028   -0.4808335530   -0.0367872943
C        4.6060987757   -0.4226499441   -1.0887896266
C        3.9495982288    0.2750788072    1.1106990336
C        2.3944560525   -1.2527507420   -0.1713678308
C        4.1065064153   -2.5392311574   -2.3149437232
C        3.5673405871   -3.1197955289   -1.0114713914
N        2.3321502918   -2.4525386219   -0.6310520727
N        4.4336733729   -1.1852690609   -2.2570619312
O        4.2488769687   -3.1744067284   -3.3469197079
F        3.1102885889    0.1827944465    2.1673697575
H       -2.2819085062    1.1320958390    1.0240105672
H       -0.3632571576    2.4967138801    0.2168607986
H       -2.0251698069   -1.3306355313    1.2836094539
H        6.7939891480    1.8517318005    0.2008541343
H        1.7973425505    1.4127335738   -0.3066087323
H        0.1480431326   -2.4178894349    0.7287553623
H        6.4232105928    0.4750010799   -1.8268848914
H        5.2099432760    1.6625028170    2.1474048917
H        3.3704574505   -4.1766395896   -1.1889801411
H        4.3497461982   -3.0246576905   -0.2422991607
H        4.9228212583   -0.8667613631   -3.0879728515
30   
torsion grid (45,)
C       -1.3176001584    0.6598264354    0.8071897872
C       -0.3238953609    1.3879925912    0.1449083265
C       -1.0941759703   -0.6822154327    1.1379411726
C        5.9417791022    1.1586644880    0.2337368067
C        0.8932037135    0.7807099666   -0.1727417715
C        0.1158857521   -1.2934547662    0.8073634360
C        5.7599635046    0.4212538551   -0.9321610589
C        5.0243146841    1.0627680751    1.2860383669
C        1.1242364377   -0.5607885296    0.1655194288
C        3.6625085668   -0.4870006458   -0.0558214512
C        4.6391929943   -0.4142516679   -1.0770772836
C        3.9163140533    0.2479847053    1.1137131935
C        2.3878594091   -1.2329279626   -0.2481527926
C        4.1221530466   -2.4703667884   -2.4020842787
C        3.5320006020   -3.0922152890   -1.1416519573
N        2.3047229478   -2.4120931923   -0.7529704991
N        4.4876469301   -1.1312708190   -2.2764216622
O        4.2758085805   -3.0638921911   -3.4571269174
F        3.0390513332    0.1508853221    2.1381241714
H       -2.2620531742    1.1339078713    1.0618301004
H       -0.4978995589    2.4260149926   -0.1264476113
H       -1.8658593317   -1.2515022883    1.6497192094
H        6.8155213684    1.7953749902    0.3378479862
H        1.6642293620    1.3485690940   -0.6876165653
H        0.2940272389   -2.3382606791    1.0422614271
H        6.4928470593    0.4724986611   -1.7331000434
H        5.1582900680    1.5964368742    2.2211437703
H        3.3116045261   -4.1340992233   -1.3720304706
H        4.2962028461   -3.0539535869   -0.3495942581
H        5.0095204451   -0.7935290985   -3.0793697697
30   
torsion grid (60,)
C       -1.3328730808    0.6621748624    0.8202653820
C       -0.4473940491    1.3090077077   -0.0479232062
C       -1.0016285189   -0.5928803471    1.3444015363
C        5.9564411954    1.0924611371    0.3424089330
C        0.7711079608    0.7097297371   -0.3780237867
C        0.2086136058   -1.1986693965    1.0020917591
C        5.7883508627    0.3861025079   -0.8444127249
C        5.0099173792    0.9933636398    1.3682194330
C        1.1110181386   -0.5398072253    0.1575497730
C        3.6531773483   -0.5034984201   -0.0379993225
C        4.6544683034   -0.4218790416   -1.0356609921
C        3.8902986295    0.2058749828    1.1511139109
C        2.3687069099   -1.2163698516   -0.2797110801
C        4.1117035056   -2.4163654725   -2.4473398681
C        3.4817448984   -3.0694835336   -1.2236219604
N        2.2646637626   -2.3733401018   -0.8266900799
N        4.5142644258   -1.0955516585   -2.2610870108
O        4.2673231721   -2.9717597258   -3.5227713719
F        2.9859926141    0.1076015068    2.1515184556
H       -2.2781632190    1.1302543164    1.0827515241
H       -0.7073773515    2.2757167355   -0.4713968327
H       -1.6909158142   -1.1016315783    2.0133960707
H        6.8400079559    1.7083161712    0.4827292767
H        1.4601308709    1.2124899909   -1.0526721971
H        0.4644964113   -2.1810856454    1.3877081933
H        6.5403493805    0.4422052583   -1.6271309046
H        5.1298238341    1.5050825262    2.3173889660
H        3.2379247657   -4.0954136589   -1.4976180985
H        4.2308655477   -3.0817530609   -0.4166551173
H        5.0605453213   -0.7419823098   -3.0406135514
30   
torsion grid (75,)
C       -1.3515644526    0.7088723668    0.8139020251
C       -0.5866801929    1.2086212966   -0.2446786458
C       -0.9000058485   -0.4032591352    1.5336958948
C        5.9661951144    1.0414361542    0.4643681802
C        0.6306382361    0.6048021311   -0.5737386881
C        0.3111062520   -1.0120463380    1.1983386370
C        5.7939081310    0.3877457833   -0.7514393771
C        5.0144507313    0.9102745545    1.4816315369
C        1.0910489402   -0.4983624301    0.1556522980
C        3.6456751595   -0.5101660963    0.0090855320
C        4.6514513506   -0.3976095834   -0.9820522447
C        3.8869592907    0.1458839061    1.2275894081
C        2.3503738373   -1.1873819174   -0.2767087311
C        4.0859884472   -2.3149928133   -2.4897233475
C        3.4363987148   -3.0123233739   -1.3020548454
N        2.2286593398   -2.3095147112   -0.8852200793
N        4.5090060472   -1.0116736689   -2.2383584203
O        4.2382292789   -2.8209868326   -3.5897339744
F        2.9797965628    0.0132674719    2.2220044552
H       -2.2971129335    1.1785066256    1.0726116977
H       -0.9398064829    2.0617066379   -0.8183021495
H       -1.4957158808   -0.8005316319    2.3515134093
H        6.8564982352    1.6400538593    0.6335348520
H        1.2235881746    0.9891647222   -1.4003883907
H        0.6583739987   -1.8832511781    1.7462897039
H        6.5494329891    0.4681310524   -1.5286220338
H        5.1365367781    1.3794935818    2.4522232010
H        3.1747856359   -4.0199185388   -1.6233443147
H        4.1776229778   -3.0742571563   -0.4904248418
H        5.0657404955   -0.6304963727   -2.9972019871
30   
torsion grid (90,)
C       -1.3529986689    0.7253807268    0.7473231780
C       -0.7076809323    0.9928700116   -0.4641059466
C       -0.7833358396   -0.1770394727    1.6517529554
C        5.9817382189    0.9705642030    0.5595295344
C        0.5047879749    0.3655114779   -0.7641135667
C        0.4302320456   -0.8016985684    1.3532976694
C        5.7803232635    0.3977465777   -0.6917523061
C        5.0596915458    0.7601647919    1.5902852811
C        1.0873624910   -0.5235983090    0.1491803710
C        3.6572208658   -0.5665737095    0.0614889729
C        4.6375806218   -0.3801181573   -0.9449606527
C        3.9317594953    0.0041421922    1.3146665333
C        2.3549693596   -1.2225119356   -0.2563020272
C        4.0660794138   -2.2055708922   -2.5585867747
C        3.4374446448   -2.9750099653   -1.4049808919
N        2.2316747910   -2.2950532417   -0.9466155148
N        4.4724459517   -0.9127545430   -2.2359882591
O        4.2091053012   -2.6437986308   -3.6884505921
F        3.0589347643   -0.2096019728    2.3269156055
H       -2.2973436716    1.2100797351    0.9815152728
H       -1.1513346669    1.6807388099   -1.1793225141
H       -1.2866484042   -0.3997017875    2.5891097469
H        6.8721444436    1.5641407211    0.7448153328
H        0.9991564658    0.5596718598   -1.7127336518
H        0.8642880434   -1.5080223994    2.0539370192
H        6.5146277543    0.5342707600   -1.4813331200
H        5.2052658001    1.1607884084    2.5879883201
H        3.1753439348   -3.9644973915   -1.7779079601
H        4.1871740499   -3.0768402935   -0.6055863641
H        5.0108563043   -0.4777574399   -2.9789442781
30   
torsion grid (105,)
C       -1.3497667034    0.7473202188    0.6352731305
C       -0.8167886388    0.7279211253   -0.6577040162
C       -0.6698027929    0.1011424539    1.6717875081
C        6.0215810819    0.8840629153    0.6106766293
C        0.3906605984    0.0718643136   -0.9058596713
C        0.5464611302   -0.5440089502    1.4283633150
C        5.7552904895    0.4248112462   -0.6748465111
C        5.1621027994    0.5606973962    1.6650598731
C        1.0926373990   -0.5527877097    0.1381023385
C        3.6785615225   -0.6269427953    0.0971031873
C        4.6073657386   -0.3423028514   -0.9356253408
C        4.0265435783   -0.1809561119    1.3802802470
C        2.3643474049   -1.2594830523   -0.2413072876
C        4.0212835053   -2.0640462353   -2.6478178814
C        3.4441357216   -2.9179200117   -1.5262409769
N        2.2412736739   -2.2797791470   -1.0079043120
N        4.3878766205   -0.7773737438   -2.2563701081
O        4.1476753153   -2.4289114537   -3.8052158587
F        3.2239192246   -0.5095199568    2.4215296619
H       -2.2925343184    1.2518255934    0.8308403190
H       -1.3449958186    1.2130923618   -1.4745073763
H       -1.0888552436    0.0912967113    2.6747363891
H        6.9156968484    1.4700269995    0.8019651833
H        0.7960570885    0.0357501306   -1.9131027290
H        1.0508540096   -1.0566505893    2.2378281601
H        6.4456220094    0.6383685667   -1.4866963333
H        5.3616198263    0.8614172237    2.6882556505
H        3.1879381551   -3.8877702444   -1.9512060332
H        4.2182338306   -3.0529586037   -0.7555163664
H        4.8907171791   -0.2798715891   -2.9849799521
30   
torsion grid (120,)
C       -1.3300510388    0.8038432164    0.5198604706
C       -0.9480293340    0.4167013786   -0.7686964398
C       -0.5111623941    0.4807970626    1.6056344794
C        6.0041307062    0.7756535520    0.7120679029
C        0.2400331340   -0.2886129462   -0.9646332627
C        0.6864094182   -0.2133457213    1.4111133399
C        5.6874327325    0.4496370938   -0.6031357327
C        5.2092439711    0.3096659946    1.7640949119
C        1.0719716180   -0.6146684512    0.1226275518
C        3.6612529725   -0.7072598984    0.1432063789
C        4.5437173111   -0.3131940257   -0.8912041479
C        4.0741639869   -0.4214416792    1.4500017548
C        2.3452150086   -1.3322547029   -0.2156695506
C        3.9737676979   -1.9495434934   -2.6788490918
C        3.4634456379   -2.8883559791   -1.5886045247
N        2.2459413491   -2.3227860431   -1.0258427867
N        4.2867896797   -0.6659080821   -2.2306581585
O        4.0848174619   -2.2502071705   -3.8560826292
F        3.3440366126   -0.9139413429    2.4842974568
H       -2.2563119771    1.3508402300    0.6762206668
H       -1.5746249884    0.6633453755   -1.6219948438
H       -0.8041527397    0.7675303338    2.6124063383
H        6.8950398455    1.3587921825    0.9255082864
H        0.5360472994   -0.5993925187   -1.9613353866
H        1.2960686049   -0.4601982181    2.2692756510
H        6.3397263718    0.7567102983   -1.4164579491
H        5.4617236016    0.4881383071    2.8041316547
H        3.2407867399   -3.8449659203   -2.0598187925
H        4.2598940728   -3.0286273982   -0.8420331947
H        4.7429589384   -0.1060778535   -2.9446149069
30   
torsion grid (135,)
C       -1.3463213806    0.8076927513    0.4997332398
C       -1.1037211157    0.1740042176   -0.7237648071
C       -0.3810942252    0.7426238451    1.5083605358
C        6.0114367642    0.6898138140    0.8073712068
C        0.0869788004   -0.5221220256   -0.9290986045
C        0.8169145327    0.0534483824    1.3022443800
C        5.6962439690    0.4545214389   -0.5279267124
C        5.2079940483    0.1651715927    1.8249873472
C        1.0590048960   -0.6080425541    0.0866607395
C        3.6489251559   -0.7110061484    0.1371394025
C        4.5433323322   -0.2722789440   -0.8666682133
C        4.0630015684   -0.5269411024    1.4609316206
C        2.3335963559   -1.3137099433   -0.2598974602
C        3.9858228263   -1.8270721739   -2.7230901068
C        3.4770887992   -2.8151313949   -1.6735331795
N        2.2516471744   -2.2851179512   -1.0969863982
N        4.2918329760   -0.5609481906   -2.2224997559
O        4.1019168744   -2.0799791556   -3.9109734579
F        3.3193201785   -1.0800401928    2.4552506367
H       -2.2728389980    1.3526020647    0.6618633140
H       -1.8388057704    0.2296210262   -1.5225753077
H       -0.5573602429    1.2325926404    2.4624921778
H        6.9099550951    1.2444984713    1.0609974310
H        0.2823491725   -1.0129707093   -1.8763126637
H        1.5399740113    0.0204172921    2.1052834116
H        6.3583816903    0.8004128134   -1.3173540300
H        5.4623585005    0.2684569632    2.8747260125
H        3.2673741593   -3.7533693065   -2.1858857696
H        4.2710983157   -2.9795795595   -0.9292818576
H        4.7490825957    0.0300333934   -2.9101553105
30   
torsion grid (150,)
C       -1.3636461000    0.7826435434    0.5366490687
C       -1.2336505615   -0.0475990047   -0.5830062042
C       -0.2790724856    0.9402363941    1.4029768603
C        6.0153397800    0.6095100510    0.9150498897
C       -0.0368606594   -0.7195877786   -0.8227339252
C        0.9231110862    0.2702587174    1.1609859339
C        5.7323991571    0.4324429047   -0.4366693181
C        5.1706182827    0.0702282365    1.8909613044
C        1.0542856224   -0.5929593470    0.0599327470
C        3.6412993098   -0.7031099240    0.1279889551
C        4.5724903788   -0.2518989183   -0.8346638670
C        4.0194545614   -0.5784497137    1.4695379729
C        2.3300531663   -1.2797456831   -0.3125519073
C        4.0363049887   -1.7335681151   -2.7521503262
C        3.4927695229   -2.7492604888   -1.7462926224
N        2.2613352925   -2.2308631105   -1.1751591388
N        4.3512821038   -0.4889177929   -2.2054588333
O        4.1755274851   -1.9508308924   -3.9444815800
F        3.2246668575   -1.1384730956    2.4178418813
H       -2.2951348480    1.3110690475    0.7229866480
H       -2.0625260576   -0.1608082062   -1.2770629193
H       -0.3629759845    1.5922472268    2.2685483190
H        6.9199856335    1.1310170197    1.2134599547
H        0.0750940666   -1.3564049550   -1.6931376869
H        1.7446497289    0.4280082654    1.8463860094
H        6.4254582252    0.7900459931   -1.1936306327
H        5.3967195391    0.1311414357    2.9504430421
H        3.2857991495   -3.6677958617   -2.2943490307
H        4.2699972668   -2.9473846321   -0.9924284314
H        4.8362735472    0.1151750961   -2.8620382708
30   
torsion grid (165,)
C       -1.3679743541    0.7604272105    0.5855227956
C       -1.3231465873   -0.2323454048   -0.4016219369
C       -0.1988745834    1.0993010679    1.2702892268
C        6.0035755099    0.5339995958    1.0055988271
C       -0.1262387144   -0.8840001571   -0.6885071049
C        1.0025869108    0.4463692172    0.9825304885
C        5.7712607545    0.3940829560   -0.3599420080
C        5.1034953573    0.0018778506    1.9352707686
C        1.0523950348   -0.5748948416    0.0188859564
C        3.6319657609   -0.6998574150    0.0949870845
C        4.6103125248   -0.2496578966   -0.8193441449
C        3.9535691099   -0.6067020127    1.4547004865
C        2.3251416029   -1.2411847199   -0.3933224338
C        4.0943394638   -1.6498903459   -2.8057501589
C        3.4919144840   -2.6834645905   -1.8538832297
N        2.2593467466   -2.1579429622   -1.2933678466
N        4.4338878047   -0.4383886409   -2.2032550019
O        4.2633500641   -1.8282172641   -4.0006823666
F        3.0955605457   -1.1469523352    2.3554001999
H       -2.3009245257    1.2725214982    0.8069040054
H       -2.2220788016   -0.4895101340   -0.9560079126
H       -0.2161126427    1.8808428019    2.0253819723
H        6.9089581989    1.0240894425    1.3514185514
H       -0.0800324536   -1.6444444092   -1.4600345392
H        1.8957683240    0.7552389550    1.5111700762
H        6.5026151666    0.7509418001   -1.0803266599
H        5.2849300999    0.0411039610    3.0042951565
H        3.2766352099   -3.5750881706   -2.4418458242
H        4.2423031537   -2.9313594298   -1.0873872813
H        4.9587298078    0.1722388221   -2.8220238580
30   
torsion grid (180,)
C       -1.3650958421    0.7324229442    0.6397562299
C       -1.3657865008   -0.3912629972   -0.1971779832
C       -0.1525064113    1.2242311210    1.1283391142
C        5.9894414961    0.4564475186    1.0956887277
C       -0.1686603278   -1.0188425067   -0.5330620315
C        1.0485981065    0.5933746135    0.7945283095
C        5.8154901983    0.3369837189   -0.2801322501
C        5.0287290412   -0.0477307171    1.9793099902
C        1.0564393880   -0.5485412223   -0.0233314529
C        3.6261331169   -0.6973847633    0.0657491899
C        4.6560819732   -0.2636940331   -0.7990460752
C        3.8832430691   -0.6144768975    1.4411519646
C        2.3243254852   -1.1945804519   -0.4736936276
C        4.1616015027   -1.5836787698   -2.8495511901
C        3.4835322667   -2.6213729808   -1.9569187876
N        2.2541149772   -2.0719053202   -1.4123830638
N        4.5317567555   -0.4104266192   -2.1928871316
O        4.3683111760   -1.7287118441   -4.0430690160
F        2.9607744150   -1.1162743787    2.2965003821
H       -2.2996584680    1.2232067573    0.8993533615
H       -2.3033460649   -0.7730950864   -0.5930440502
H       -0.1377119225    2.1052120190    1.7646680147
H        6.8936392466    0.9135292343    1.4868854886
H       -0.1583103580   -1.8813425122   -1.1904507505
H        1.9783017098    1.0131621252    1.1627935146
H        6.5884153471    0.6800996930   -0.9628039575
H        5.1586498013   -0.0159438069    3.0560587370
H        3.2533333999   -3.4820876611   -2.5840836392
H        4.1975114744   -2.9270398714   -1.1763380370
H        5.1049783501    0.1962706718   -2.7712691555
