33   
torsion grid (-60,)
C       -0.7739602923    1.2857251017    1.4981846977
C       -0.8700617650    0.0534731882    0.8517973365
C       -2.4938707380   -5.6930350612    1.7454660470
C       -1.6959358119    1.6681103805    2.4993511663
C       -3.3772309217   -4.6198814629    1.6013824899
C       -1.8717214530   -0.8856072257    1.1935017414
C       -1.5665368290   -5.7125617581    2.7905822694
C       -2.4233084322   -3.5637982959    3.5568061980
C       -4.7394198975   -0.0538426557    3.0172968978
C       -2.7295762227    0.7999945235    2.8131643640
C       -3.3501382145   -3.5521828455    2.5069950940
C       -4.0261042727    0.9410565564    3.6311553892
C       -2.8154176522   -0.4829953377    2.1142648163
C       -1.5454581147   -4.6394918663    3.6838130984
C       -4.3367555433   -2.4103281372    2.3622312333
C       -4.5207431637    2.1786285810    4.3047912230
N       -3.7956471489   -1.1514536758    2.9094446191
O       -4.2026079524    3.3996298771    3.6232557220
Cl      -0.3785954287   -4.6416749146    4.9985774929
H        0.0212656245    1.9720636001    1.2192664194
H       -0.1475121957   -0.2041440197    0.0818190762
H       -2.5190229115   -6.5173995379    1.0378595850
H       -1.6130627892    2.6354130065    2.9861526323
H       -4.0860240463   -4.6107234551    0.7764194087
H       -1.8907046250   -1.8732367643    0.7430221871
H       -0.8702888390   -6.5368168548    2.9076637509
H       -2.3791851548   -2.7327835419    4.2524206729
H       -5.7836840216   -0.3107316207    3.2122061380
H       -4.6325954094   -2.3119805278    1.3082597236
H       -5.2418988715   -2.6462578821    2.9344635815
H       -5.6049609042    2.0894469112    4.4681739268
H       -4.0507600517    2.2743287353    5.2893262973
H       -4.4263862147    3.2779389150    2.6867243219
33   
torsion grid (-45,)
C       -0.7662273070    1.3071426616    1.5009210731
C       -0.8335050636    0.0420368738    0.8974901770
C       -2.4891930880   -5.7045345246    1.7382062518
C       -1.7149762536    1.7115170132    2.4519007450
C       -3.3625399476   -4.6271282125    1.5670835873
C       -1.8349967843   -0.8816374294    1.2397751818
C       -1.5888372013   -5.7256762147    2.8066323081
C       -2.4533997074   -3.5702000206    3.5435265493
C       -4.7339097174   -0.1094869706    3.1517612356
C       -2.7519151474    0.8341604096    2.7743379597
C       -3.3522025137   -3.5572814012    2.4701424495
C       -3.9875924488    0.9575661583    3.5936925920
C       -2.8051692078   -0.4582499475    2.1386393818
C       -1.5842768886   -4.6495874638    3.6965396769
C       -4.3305121278   -2.4111424560    2.2969635653
C       -4.4703392832    2.1782875373    4.3078949970
N       -3.8115094669   -1.1546663174    2.8526483156
O       -4.3073485386    3.3980171453    3.5681240911
Cl      -0.4499766123   -4.6513055631    5.0389410758
H        0.0319980470    1.9884594347    1.2183744470
H       -0.0861796471   -0.2378911805    0.1596528413
H       -2.5006350493   -6.5311980791    1.0329920868
H       -1.6636185856    2.6966725995    2.9060571521
H       -4.0493884476   -4.6165552361    0.7237467056
H       -1.8446836884   -1.8791949479    0.8118079246
H       -0.9001131620   -6.5531519761    2.9437679455
H       -2.4218747968   -2.7367364395    4.2370201190
H       -5.7296223147   -0.3921091717    3.4915553690
H       -4.5937266461   -2.3091486412    1.2354574888
H       -5.2531245567   -2.6458149208    2.8397938737
H       -5.5204550197    2.0366022398    4.6022137098
H       -3.8921405433    2.3286213810    5.2255820036
H       -4.6301637346    3.2357778731    2.6673498724
33   
torsion grid (-30,)
C       -0.7665654130    1.3409505125    1.4688338776
C       -0.8114730416    0.0595055755    0.8861761265
C       -2.4768428156   -5.6961731250    1.7404365853
C       -1.7278524714    1.7484258374    2.3974317958
C       -3.3381150753   -4.6151671288    1.5333412937
C       -1.8083228892   -0.8617192896    1.2249119834
C       -1.6228507864   -5.7211270610    2.8459990863
C       -2.5076460783   -3.5620487439    3.5460704375
C       -4.6816177146   -0.1539419683    3.2774693314
C       -2.7584408950    0.8586128664    2.7313544713
C       -3.3609702361   -3.5461996250    2.4365979227
C       -3.9499518347    0.9696148235    3.5786043185
C       -2.7878098816   -0.4382871985    2.1231111511
C       -1.6508775259   -4.6453055477    3.7361350060
C       -4.3291164949   -2.3962684116    2.2269484327
C       -4.4101502945    2.1780057637    4.3288339011
N       -3.8220243591   -1.1353764351    2.7632989280
O       -4.3932199601    3.3857547549    3.5509412140
Cl      -0.5758381903   -4.6533271307    5.1259399545
H        0.0288240424    2.0247425514    1.1841549235
H       -0.0502390945   -0.2254318816    0.1647178890
H       -2.4614464549   -6.5224255509    1.0348531782
H       -1.6959166742    2.7417853881    2.8352963277
H       -3.9891752102   -4.6015351444    0.6621272544
H       -1.8122560714   -1.8616905328    0.8023240974
H       -0.9440445389   -6.5515440100    3.0117530002
H       -2.5001920728   -2.7278846841    4.2397627017
H       -5.6424241292   -0.4503460346    3.6875628061
H       -4.5673425662   -2.3055032408    1.1590479691
H       -5.2658396064   -2.6177389683    2.7495532234
H       -5.4131763774    1.9941910264    4.7407521060
H       -3.7425056844    2.3812447190    5.1723623647
H       -4.7963385376    3.1812776481    2.6921230923
33   
torsion grid (-15,)
C       -0.7525662418    1.3484978618    1.4608502248
C       -0.7928151099    0.0673466375    0.8692404743
C       -2.4829128774   -5.7170392292    1.7955827107
C       -1.7250844729    1.7526462178    2.3737475884
C       -3.3366753346   -4.6422051508    1.5327441009
C       -1.8011273611   -0.8453296932    1.1810330574
C       -1.6578188297   -5.7086189568    2.9230992823
C       -2.5557566737   -3.5273974600    3.5322033138
C       -4.6351263774   -0.2144230358    3.3458232998
C       -2.7605864098    0.8583372598    2.6955972827
C       -3.3802888846   -3.5459165755    2.4015886855
C       -3.9296572125    0.9488887122    3.5505433710
C       -2.7852496063   -0.4285996330    2.0840137230
C       -1.7065724970   -4.6054574116    3.7782408820
C       -4.3401553353   -2.4001537352    2.1302045503
C       -4.3555644279    2.1248680276    4.3707326371
N       -3.8597365752   -1.1240538703    2.6332440955
O       -4.4467028010    3.3452535149    3.6166982077
Cl      -0.6679451274   -4.5713087215    5.1946780748
H        0.0510082903    2.0298133768    1.1938318340
H       -0.0193993378   -0.2176533280    0.1609209281
H       -2.4506386132   -6.5647937933    1.1165975417
H       -1.6992332430    2.7436661130    2.8174692968
H       -3.9651300657   -4.6549331494    0.6449997632
H       -1.8110496563   -1.8387887201    0.7429978154
H       -0.9850532756   -6.5341906811    3.1320496495
H       -2.5629152773   -2.6719652720    4.1997272824
H       -5.5641658874   -0.5367960801    3.8018000930
H       -4.5407830327   -2.3373167704    1.0530406957
H       -5.2963032595   -2.6054503910    2.6224186246
H       -5.3116283515    1.9027048253    4.8668410625
H       -3.6208994618    2.3375610199    5.1539255548
H       -4.9155882193    3.1394259554    2.7922826534
33   
torsion grid (0,)
C       -0.7367774542    1.3611754685    1.4728315547
C       -0.8142663246    0.1536515942    0.7426946064
C       -2.5699519535   -5.7831884283    2.0560115577
C       -1.6991756193    1.6913574335    2.4233606065
C       -3.3843988595   -4.7391507867    1.6108782365
C       -1.8580737033   -0.7482321360    0.9418334034
C       -1.7838944610   -5.6309149301    3.2017493738
C       -2.6427988869   -3.3652323186    3.4586996162
C       -4.5957343249   -0.3596369894    3.2878135698
C       -2.7588203849    0.7944851134    2.6512431025
C       -3.4278682206   -3.5282913341    2.3127814516
C       -3.8963688377    0.7989799877    3.5433814419
C       -2.8272256970   -0.4074408149    1.8935379648
C       -1.8317358510   -4.4162134510    3.8880239153
C       -4.3482665882   -2.4139448362    1.8369194523
C       -4.2506900291    1.8558769270    4.5413250927
N       -3.9634245219   -1.0961616256    2.2962877705
O       -4.4287928643    3.1549653573    3.9505014080
Cl      -0.8430895274   -4.2004744593    5.3236006386
H        0.0910587647    2.0401267895    1.2861262637
H       -0.0429287622   -0.0785268497    0.0132153018
H       -2.5378785807   -6.7204021685    1.5069943714
H       -1.6430608905    2.6247153613    2.9761135680
H       -3.9841646391   -4.8663293418    0.7121104947
H       -1.9037282403   -1.6821737909    0.3889655326
H       -1.1418988940   -6.4327622333    3.5520537837
H       -2.6496965847   -2.4264963882    4.0026097594
H       -5.5031147710   -0.7327295346    3.7469065979
H       -4.3925556473   -2.4181993210    0.7416805658
H       -5.3663803873   -2.6027369246    2.1922744819
H       -5.1513534856    1.5556554072    5.0962633924
H       -3.4446994767    1.9921206110    5.2692495899
H       -4.9791453999    3.0378958206    3.1596993971
33   
torsion grid (15,)
C       -0.7421705613    1.3998688537    1.4960834073
C       -0.8182757360    0.2267721058    0.7137328319
C       -2.5946099218   -5.7350567890    2.2264776069
C       -1.7165753325    1.6971824335    2.4468006235
C       -3.4009361766   -4.7251485016    1.6971779830
C       -1.8771819671   -0.6704543369    0.8525879916
C       -1.8014861625   -5.4927387241    3.3521234719
C       -2.6391357999   -3.2047819145    3.4166918822
C       -4.5420304251   -0.4447862317    3.2924106834
C       -2.7789025193    0.7949926232    2.6277445886
C       -3.4306454764   -3.4568840525    2.2917045373
C       -3.9082590944    0.7510367138    3.5372023143
C       -2.8461692891   -0.3737281592    1.8165922017
C       -1.8356606396   -4.2235700161    3.9310438258
C       -4.3389169707   -2.3820484614    1.7102313573
C       -4.2206664938    1.7315506222    4.6235329965
N       -4.0375016440   -1.0261017624    2.1309327523
O       -4.4971829905    3.0503199225    4.1224938369
Cl      -0.8387163936   -3.8936958898    5.3396941557
H        0.0948207560    2.0780614441    1.3525117328
H       -0.0361848137    0.0177960574   -0.0112963082
H       -2.5748592311   -6.7163682988    1.7601188873
H       -1.6608687060    2.6060327830    3.0392775449
H       -4.0069947270   -4.9239006314    0.8156394998
H       -1.9279863237   -1.5720794890    0.2488408916
H       -1.1660875523   -6.2680055145    3.7680764267
H       -2.6338459627   -2.2261068789    3.8844262758
H       -5.4228021055   -0.8616039782    3.7666761998
H       -4.2957204294   -2.4219154622    0.6166179185
H       -5.3784902489   -2.5888974750    1.9854825599
H       -5.0610630386    1.3615197111    5.2285055893
H       -3.3640635177    1.8639969428    5.2917427350
H       -5.1165912987    2.9535208267    3.3815491573
33   
torsion grid (30,)
C       -0.7005226863    1.3698284405    1.4957056509
C       -0.7605937112    0.1713763685    0.7561523493
C       -2.6103848770   -5.7106726392    2.1881219746
C       -1.7005881363    1.7055270928    2.4103527729
C       -3.4142227119   -4.6929624244    1.6700182241
C       -1.8314026430   -0.7163204764    0.8943698718
C       -1.8164327641   -5.4825459259    3.3159676735
C       -2.6480913151   -3.1932161668    3.4038730046
C       -4.4397386235   -0.4794631874    3.3607006380
C       -2.7626915938    0.8105944824    2.6017427588
C       -3.4416853717   -3.4303046151    2.2770041271
C       -3.9030780764    0.7782185898    3.5140326752
C       -2.8098613978   -0.3937485390    1.8356172007
C       -1.8472126333   -4.2192544539    3.9076693062
C       -4.3524408357   -2.3518636410    1.7054686342
C       -4.1973524933    1.7615916882    4.6036863806
N       -4.0567763652   -0.9821371273    2.1031105136
O       -4.5784183274    3.0494029558    4.0914331312
Cl      -0.8493126563   -3.9070871727    5.3198197195
H        0.1433607906    2.0393065301    1.3517101291
H        0.0402319944   -0.0669265305    0.0612183090
H       -2.5934390844   -6.6869879712    1.7112657742
H       -1.6563162605    2.6363996011    2.9689347674
H       -4.0211647686   -4.8811951586    0.7868096193
H       -1.8763580075   -1.6321290425    0.3120347998
H       -1.1830545898   -6.2636922098    3.7239264931
H       -2.6380766286   -2.2200006371    3.8833079996
H       -5.3022536030   -0.9108740445    3.8595264035
H       -4.3238712248   -2.3965598237    0.6118021623
H       -5.3891395716   -2.5563283010    1.9941298080
H       -4.9773538974    1.3605869025    5.2668575425
H       -3.3093913683    1.9573014151    5.2127000305
H       -5.2416923226    2.9007036483    3.3984697598
33   
torsion grid (45,)
C       -0.6757239931    1.3571313526    1.5086061341
C       -0.6991756357    0.1322862810    0.8218273325
C       -2.6547034443   -5.7028203901    2.1640071696
C       -1.7147798808    1.7249307584    2.3752800647
C       -3.4562256543   -4.6740050559    1.6649629910
C       -1.7731397445   -0.7616400902    0.9545090563
C       -1.8338246231   -5.4867844760    3.2749956110
C       -2.6345846871   -3.1877859155    3.3830917479
C       -4.3224940615   -0.5125286008    3.4295653754
C       -2.7660971479    0.8292328328    2.5748920777
C       -3.4555278333   -3.4111072699    2.2730905704
C       -3.9293606144    0.8031980511    3.4994919190
C       -2.7699735322   -0.4225226318    1.8605380834
C       -1.8361836276   -4.2243547926    3.8687906900
C       -4.3643345015   -2.3230462801    1.7159717971
C       -4.2139993921    1.7988519309    4.5802195117
N       -4.0669866090   -0.9413970572    2.0933692596
O       -4.7081040500    3.0397936615    4.0504459884
Cl      -0.8044918532   -3.9252160723    5.2596721899
H        0.1678843339    2.0277537463    1.3684110443
H        0.1282899533   -0.1278618290    0.1670042223
H       -2.6606204570   -6.6784132741    1.6853668441
H       -1.6947326397    2.6812952510    2.8911510030
H       -4.0841133201   -4.8531374791    0.7946079979
H       -1.7964992796   -1.6937709148    0.3975280867
H       -1.2017966451   -6.2765093615    3.6682175812
H       -2.5988635652   -2.2163475798    3.8652560278
H       -5.1437210655   -0.9834055766    3.9674878225
H       -4.3504883547   -2.3703400490    0.6220906981
H       -5.3988750686   -2.5218519522    2.0173662587
H       -4.9250594540    1.3721483350    5.3021864199
H       -3.3043773375    2.0711810042    5.1241629938
H       -5.4169895080    2.8266366273    3.4223420956
33   
torsion grid (60,)
C       -0.6623554932    1.3882606262    1.5116768826
C       -0.6189284576    0.1367415799    0.8941022100
C       -2.7611066735   -5.7258531654    2.1608873448
C       -1.7579970285    1.7758806042    2.3145909799
C       -3.5391123351   -4.6714860522    1.6793354505
C       -1.6808703186   -0.7877220159    1.0178555796
C       -1.8898581340   -5.5311899178    3.2371978431
C       -2.5934304419   -3.1998359065    3.3430720791
C       -4.1733879945   -0.5279581623    3.4760746413
C       -2.7827648644    0.8668174180    2.5182598038
C       -3.4658323289   -3.4008763436    2.2685156387
C       -3.9847840502    0.8280208972    3.4760875235
C       -2.7104410403   -0.4439361431    1.8694080391
C       -1.8195062566   -4.2626738218    3.8125136735
C       -4.3577483211   -2.2911202252    1.7250182381
C       -4.2666928587    1.8356521732    4.5451314759
N       -4.0459537972   -0.9007169833    2.0790077914
O       -4.9013717482    3.0079131824    4.0115455464
Cl      -0.7247628049   -3.9878087603    5.1597391557
H        0.1686374333    2.0757703572    1.3779895165
H        0.2456548420   -0.1319458748    0.2928260591
H       -2.8252226976   -6.7059409973    1.6958495637
H       -1.7818197347    2.7604942178    2.7750917456
H       -4.2074154466   -4.8359442158    0.8366262038
H       -1.6592978584   -1.7392426790    0.4945821331
H       -1.2757328138   -6.3412837022    3.6171402971
H       -2.4941667641   -2.2263667017    3.8114674898
H       -4.8951550436   -1.0837335359    4.0785196828
H       -4.3592576023   -2.3426504944    0.6309930790
H       -5.3919356908   -2.4736747034    2.0393086566
H       -4.8844169498    1.3798018858    5.3323646720
H       -3.3442070346    2.2014455478    5.0060812919
H       -5.6515348884    2.7144560928    3.4695210369
