
  -OEChem-12102412493D

 58 62  0     0  0  0  0  0  0999 V2000
   -3.2538    4.5491    7.7856 C   0  0  0  0  0  0  0  0  0  0  0  0
   -2.6397    3.2830    7.6395 O   0  0  0  0  0  0  0  0  0  0  0  0
   -2.9833    2.5205    6.5422 C   0  0  0  0  0  0  0  0  0  0  0  0
   -3.9881    2.9117    5.6161 C   0  0  0  0  0  0  0  0  0  0  0  0
   -4.2887    2.0929    4.5461 C   0  0  0  0  0  0  0  0  0  0  0  0
   -3.6196    0.8591    4.3530 C   0  0  0  0  0  0  0  0  0  0  0  0
   -3.9096   -0.0124    3.2710 C   0  0  0  0  0  0  0  0  0  0  0  0
   -3.2320   -1.2027    3.1125 C   0  0  0  0  0  0  0  0  0  0  0  0
   -2.2121   -1.5622    4.0371 C   0  0  0  0  0  0  0  0  0  0  0  0
   -1.9066   -0.7471    5.1066 C   0  0  0  0  0  0  0  0  0  0  0  0
   -2.6044    0.4757    5.2924 C   0  0  0  0  0  0  0  0  0  0  0  0
   -2.2973    1.3322    6.3802 C   0  0  0  0  0  0  0  0  0  0  0  0
   -1.5008   -2.7389    3.9269 O   0  0  0  0  0  0  0  0  0  0  0  0
   -1.3660   -3.3360    2.6388 C   0  0  0  0  0  0  0  0  0  0  0  0
   -0.0440   -4.0963    2.6066 C   0  0  0  0  0  0  0  0  0  0  0  0
    1.1597   -3.1909    2.8779 C   0  0  0  0  0  0  0  0  0  0  0  0
    1.2049   -2.1189    1.9165 O   0  0  0  0  0  0  0  0  0  0  0  0
    0.7933   -0.8666    2.3494 C   0  0  0  0  0  0  0  0  0  0  0  0
   -0.0895   -0.1647    1.5009 C   0  0  0  0  0  0  0  0  0  0  0  0
   -0.5736    1.0906    1.8653 C   0  0  0  0  0  0  0  0  0  0  0  0
   -0.1731    1.6536    3.0818 C   0  0  0  0  0  0  0  0  0  0  0  0
   -0.4625    2.8898    3.7765 C   0  0  0  0  0  0  0  0  0  0  0  0
   -1.2648    3.9983    3.4896 C   0  0  0  0  0  0  0  0  0  0  0  0
   -1.3040    5.0652    4.3907 C   0  0  0  0  0  0  0  0  0  0  0  0
   -0.5515    5.0206    5.5805 C   0  0  0  0  0  0  0  0  0  0  0  0
    0.2425    3.9176    5.9009 C   0  0  0  0  0  0  0  0  0  0  0  0
    0.2864    2.8530    4.9945 C   0  0  0  0  0  0  0  0  0  0  0  0
    0.9929    1.6615    5.0573 N   0  0  0  0  0  0  0  0  0  0  0  0
    0.7299    0.9301    3.9105 C   0  0  0  0  0  0  0  0  0  0  0  0
    1.2369   -0.3247    3.5547 C   0  0  0  0  0  0  0  0  0  0  0  0
    1.9145    1.2183    6.0986 C   0  0  0  0  0  0  0  0  0  0  0  0
    1.4914   -0.1614    6.7285 C   0  0  0  0  0  0  0  0  0  0  0  0
    0.3669   -0.1595    7.2979 O   0  0  0  0  0  0  0  0  0  0  0  0
    2.3187   -1.0975    6.5783 O   0  5  0  0  0  0  0  0  0  0  0  0
   -2.8050    4.9997    8.6743 H   0  0  0  0  0  0  0  0  0  0  0  0
   -4.3393    4.4619    7.9402 H   0  0  0  0  0  0  0  0  0  0  0  0
   -3.0616    5.1949    6.9198 H   0  0  0  0  0  0  0  0  0  0  0  0
   -4.5078    3.8568    5.7264 H   0  0  0  0  0  0  0  0  0  0  0  0
   -5.0507    2.3996    3.8314 H   0  0  0  0  0  0  0  0  0  0  0  0
   -4.6832    0.2687    2.5582 H   0  0  0  0  0  0  0  0  0  0  0  0
   -3.4749   -1.8578    2.2819 H   0  0  0  0  0  0  0  0  0  0  0  0
   -1.1126   -1.0137    5.8002 H   0  0  0  0  0  0  0  0  0  0  0  0
   -1.4922    1.0530    7.0567 H   0  0  0  0  0  0  0  0  0  0  0  0
   -1.3638   -2.5664    1.8616 H   0  0  0  0  0  0  0  0  0  0  0  0
   -2.2081   -4.0181    2.4477 H   0  0  0  0  0  0  0  0  0  0  0  0
   -0.0543   -4.8953    3.3589 H   0  0  0  0  0  0  0  0  0  0  0  0
    0.0570   -4.5673    1.6205 H   0  0  0  0  0  0  0  0  0  0  0  0
    2.0915   -3.7558    2.7694 H   0  0  0  0  0  0  0  0  0  0  0  0
    1.1118   -2.7998    3.8951 H   0  0  0  0  0  0  0  0  0  0  0  0
   -0.4011   -0.6387    0.5743 H   0  0  0  0  0  0  0  0  0  0  0  0
   -1.2767    1.6106    1.2187 H   0  0  0  0  0  0  0  0  0  0  0  0
   -1.8598    4.0239    2.5794 H   0  0  0  0  0  0  0  0  0  0  0  0
   -1.9257    5.9322    4.1785 H   0  0  0  0  0  0  0  0  0  0  0  0
   -0.5990    5.8556    6.2763 H   0  0  0  0  0  0  0  0  0  0  0  0
    0.7858    3.8817    6.8397 H   0  0  0  0  0  0  0  0  0  0  0  0
    1.9074   -0.8571    4.2219 H   0  0  0  0  0  0  0  0  0  0  0  0
    1.9211    1.9758    6.8846 H   0  0  0  0  0  0  0  0  0  0  0  0
    2.9207    1.1389    5.6722 H   0  0  0  0  0  0  0  0  0  0  0  0
  1  2  1  0  0  0  0
  1 35  1  0  0  0  0
  1 36  1  0  0  0  0
  1 37  1  0  0  0  0
  2  3  1  0  0  0  0
  3  4  1  0  0  0  0
  3 12  2  0  0  0  0
  4  5  2  0  0  0  0
  4 38  1  0  0  0  0
  5  6  1  0  0  0  0
  5 39  1  0  0  0  0
  6  7  1  0  0  0  0
  6 11  2  0  0  0  0
  7  8  2  0  0  0  0
  7 40  1  0  0  0  0
  8  9  1  0  0  0  0
  8 41  1  0  0  0  0
  9 10  2  0  0  0  0
  9 13  1  0  0  0  0
 10 11  1  0  0  0  0
 10 42  1  0  0  0  0
 11 12  1  0  0  0  0
 12 43  1  0  0  0  0
 13 14  1  0  0  0  0
 14 15  1  0  0  0  0
 14 44  1  0  0  0  0
 14 45  1  0  0  0  0
 15 16  1  0  0  0  0
 15 46  1  0  0  0  0
 15 47  1  0  0  0  0
 16 17  1  0  0  0  0
 16 48  1  0  0  0  0
 16 49  1  0  0  0  0
 17 18  1  0  0  0  0
 18 19  1  0  0  0  0
 18 30  2  0  0  0  0
 19 20  2  0  0  0  0
 19 50  1  0  0  0  0
 20 21  1  0  0  0  0
 20 51  1  0  0  0  0
 21 22  1  0  0  0  0
 21 29  2  0  0  0  0
 22 23  1  0  0  0  0
 22 27  2  0  0  0  0
 23 24  2  0  0  0  0
 23 52  1  0  0  0  0
 24 25  1  0  0  0  0
 24 53  1  0  0  0  0
 25 26  2  0  0  0  0
 25 54  1  0  0  0  0
 26 27  1  0  0  0  0
 26 55  1  0  0  0  0
 27 28  1  0  0  0  0
 28 29  1  0  0  0  0
 28 31  1  0  0  0  0
 29 30  1  0  0  0  0
 30 56  1  0  0  0  0
 31 32  1  0  0  0  0
 31 57  1  0  0  0  0
 31 58  1  0  0  0  0
 32 33  2  0  0  0  0
 32 34  1  0  0  0  0
M  CHG  1  34  -1
M  END
$$$$
