58
-1 1 C28H24NO5
C                    -6.172601136672     3.423164395546     2.921579087902
O                    -5.712532321256     2.111585258966     2.638284168714
C                    -4.820918061760     1.540567588488     3.531341240458
C                    -4.435204020884     2.163066872460     4.745044596252
C                    -3.501727906946     1.545438082618     5.553614763863
C                    -2.929800273920     0.298593818648     5.209470259938
C                    -1.924660505563    -0.315358724194     6.007660150885
C                    -1.344725373569    -1.497511931426     5.620402616504
C                    -1.758744262053    -2.126703365032     4.415000675285
C                    -2.747167422868    -1.575843372160     3.623294993787
C                    -3.340152260673    -0.335168949335     3.992897551846
C                    -4.294612896900     0.313559426426     3.170535152838
O                    -1.080150167001    -3.286455574876     4.119713351644
C                    -1.062888443432    -3.764527607553     2.775267679982
C                     0.320485461804    -4.353089201223     2.515058793955
C                     1.428847626979    -3.304645925074     2.637480539034
O                     1.270733974437    -2.286143500796     1.634497305397
C                     0.668240314291    -1.090900232699     2.002162418686
C                    -0.279421733598    -0.575165647211     1.089424579713
C                    -0.948912281967     0.616786202137     1.358582053459
C                    -0.665870261859     1.309076006662     2.541325335615
C                    -1.144412812452     2.536355726594     3.140921237231
C                    -2.079012988746     3.504506801691     2.759643108991
C                    -2.303357233285     4.601500970355     3.595037279994
C                    -1.613427283946     4.722521840480     4.817779405888
C                    -0.677764546272     3.767407204721     5.224871242973
C                    -0.433464478775     2.685199078131     4.371488475876
N                     0.449757252414     1.626146502714     4.520324498308
C                     0.306973667869     0.777088949672     3.433505566013
C                     0.982625823385    -0.424131427937     3.185736948279
C                     1.522837162080     1.521947773942     5.511401916760
C                     1.248259167412     0.413975718207     6.583351646782
O                     0.568923462250     0.789471204267     7.575603896851
O                     1.716172892098    -0.726332113161     6.307765024475
H                    -6.803280023916     3.710125226904     2.076452236723
H                    -5.341023497548     4.133055867081     3.011949675311
H                    -6.772422055021     3.455468081872     3.841622472273
H                    -4.818644176703     3.137301326436     5.022428510745
H                    -3.164632816065     2.038678514362     6.461292726766
H                    -1.545902737251     0.187965491515     6.892637644433
H                    -0.510602519064    -1.911774590683     6.177139709688
H                    -3.060800135045    -2.045794836574     2.696865710509
H                    -4.598644662276    -0.132561119109     2.226693483946
H                    -1.252467872521    -2.947746699882     2.075080461223
H                    -1.847499075642    -4.523034689976     2.642302851579
H                     0.518047460323    -5.159728300649     3.232799508722
H                     0.336259334853    -4.788674241252     1.508081029101
H                     2.405903701468    -3.765101976497     2.457563869936
H                     1.430489134686    -2.875572844548     3.641040041362
H                    -0.486602512191    -1.146156816494     0.188495716496
H                    -1.697447601950     0.991064480069     0.664051135821
H                    -2.634377401537     3.394913963231     1.830901802853
H                    -3.027272557082     5.361978539374     3.309849837888
H                    -1.821724266613     5.569818958528     5.467808478065
H                    -0.178235869983     3.844005807053     6.185602084095
H                     1.664000739387    -0.816924076565     3.934596341678
H                     1.616823590910     2.494520389222     5.997260141204
H                     2.450068207042     1.301619285919     4.971131310218
