58
-1 1 C28H24NO5
C                     3.791292422474    -1.882309225702    -5.573990774694
O                     2.857266466955    -2.449802951673    -4.669728830606
C                     3.316494827250    -2.793457675631    -3.408939106686
C                     4.677986450475    -2.693823095009    -3.027121143607
C                     5.040928858245    -3.010238083374    -1.732985592929
C                     4.090834442016    -3.445970700343    -0.780279538996
C                     4.447482218072    -3.717044314185     0.570149433553
C                     3.495139068578    -4.082445930164     1.488481215403
C                     2.136951638440    -4.205604014748     1.087936152389
C                     1.752419382569    -3.973898052651    -0.218077532214
C                     2.720787616118    -3.565390819989    -1.178758900558
C                     2.362503333079    -3.231576987655    -2.508549633800
O                     1.275038963340    -4.544402077269     2.105329574695
C                    -0.117697224483    -4.267307172909     1.964280236164
C                    -0.641430117132    -3.839157712995     3.331858773173
C                     0.027167248898    -2.556823052245     3.833130834366
O                    -0.282467899877    -1.454780834622     2.962546532315
C                     0.659608952434    -1.083339481008     2.013184539679
C                     0.153512493738    -0.800522165419     0.724369786478
C                     1.009900786304    -0.422021026887    -0.307509486254
C                     2.381688589350    -0.312627164350    -0.053498493056
C                     3.538112226913     0.042483923421    -0.848083978101
C                     3.722607337238     0.415463690438    -2.183384266331
C                     5.011439039986     0.704539627232    -2.638331519490
C                     6.116560254042     0.601472903765    -1.770082471178
C                     5.960924378537     0.226624982441    -0.432661034308
C                     4.664822172506    -0.033107728764     0.027538683674
N                     4.234696632593    -0.393170666368     1.296085886206
C                     2.861930095129    -0.584452490295     1.258332912884
C                     2.018776757439    -0.976079948915     2.305513768004
C                     5.026453654864    -0.349439244716     2.527273018911
C                     5.344576038791    -1.775451519033     3.090614963364
O                     4.508777840988    -2.220638077374     3.926348014161
O                     6.380280241444    -2.315590836709     2.618771912677
H                     3.223684822860    -1.626845794522    -6.472269846530
H                     4.583508839357    -2.594596266595    -5.842976107093
H                     4.251028983395    -0.974370235557    -5.164200107376
H                     5.428006345372    -2.323580946914    -3.715227151394
H                     6.074141752800    -2.890125159632    -1.418592532476
H                     5.467098793216    -3.557337795905     0.909064200816
H                     3.752201636246    -4.191045778171     2.537027358310
H                     0.715826236287    -4.056288753558    -0.528227808545
H                     1.323880093680    -3.283923070332    -2.826073020876
H                    -0.638923706316    -5.165721767029     1.604002637824
H                    -0.277870302435    -3.464108005817     1.241397956242
H                    -1.725764112622    -3.685667852167     3.263588081318
H                    -0.460934713378    -4.638853197776     4.061758657298
H                     1.105315681390    -2.704021525215     3.917848761395
H                    -0.363012984135    -2.288480056311     4.820442945293
H                    -0.914538888317    -0.910648970143     0.557725829051
H                     0.614953164030    -0.234298057287    -1.303274425231
H                     2.873616449942     0.464475263466    -2.861482966845
H                     5.168595982465     0.996483143579    -3.674568466009
H                     7.115812454962     0.804076659326    -2.149933329104
H                     6.819125669270     0.109825374801     0.221754599439
H                     2.449480836213    -1.237162887523     3.267641621086
H                     4.457936907635     0.228339326100     3.264266221914
H                     5.955188589708     0.177344799061     2.302015202836
