
  -OEChem-12122420533D

 58 62  0     0  0  0  0  0  0999 V2000
   -6.1726    3.4232    2.9216 C   0  0  0  0  0  0  0  0  0  0  0  0
   -5.7125    2.1116    2.6383 O   0  0  0  0  0  0  0  0  0  0  0  0
   -4.8209    1.5406    3.5313 C   0  0  0  0  0  0  0  0  0  0  0  0
   -4.4352    2.1631    4.7450 C   0  0  0  0  0  0  0  0  0  0  0  0
   -3.5017    1.5454    5.5536 C   0  0  0  0  0  0  0  0  0  0  0  0
   -2.9298    0.2986    5.2095 C   0  0  0  0  0  0  0  0  0  0  0  0
   -1.9247   -0.3154    6.0077 C   0  0  0  0  0  0  0  0  0  0  0  0
   -1.3447   -1.4975    5.6204 C   0  0  0  0  0  0  0  0  0  0  0  0
   -1.7587   -2.1267    4.4150 C   0  0  0  0  0  0  0  0  0  0  0  0
   -2.7472   -1.5758    3.6233 C   0  0  0  0  0  0  0  0  0  0  0  0
   -3.3402   -0.3352    3.9929 C   0  0  0  0  0  0  0  0  0  0  0  0
   -4.2946    0.3136    3.1705 C   0  0  0  0  0  0  0  0  0  0  0  0
   -1.0802   -3.2865    4.1197 O   0  0  0  0  0  0  0  0  0  0  0  0
   -1.0629   -3.7645    2.7753 C   0  0  0  0  0  0  0  0  0  0  0  0
    0.3205   -4.3531    2.5151 C   0  0  0  0  0  0  0  0  0  0  0  0
    1.4288   -3.3046    2.6375 C   0  0  0  0  0  0  0  0  0  0  0  0
    1.2707   -2.2861    1.6345 O   0  0  0  0  0  0  0  0  0  0  0  0
    0.6682   -1.0909    2.0022 C   0  0  0  0  0  0  0  0  0  0  0  0
   -0.2794   -0.5752    1.0894 C   0  0  0  0  0  0  0  0  0  0  0  0
   -0.9489    0.6168    1.3586 C   0  0  0  0  0  0  0  0  0  0  0  0
   -0.6659    1.3091    2.5413 C   0  0  0  0  0  0  0  0  0  0  0  0
   -1.1444    2.5364    3.1409 C   0  0  0  0  0  0  0  0  0  0  0  0
   -2.0790    3.5045    2.7596 C   0  0  0  0  0  0  0  0  0  0  0  0
   -2.3034    4.6015    3.5950 C   0  0  0  0  0  0  0  0  0  0  0  0
   -1.6134    4.7225    4.8178 C   0  0  0  0  0  0  0  0  0  0  0  0
   -0.6778    3.7674    5.2249 C   0  0  0  0  0  0  0  0  0  0  0  0
   -0.4335    2.6852    4.3715 C   0  0  0  0  0  0  0  0  0  0  0  0
    0.4498    1.6261    4.5203 N   0  0  0  0  0  0  0  0  0  0  0  0
    0.3070    0.7771    3.4335 C   0  0  0  0  0  0  0  0  0  0  0  0
    0.9826   -0.4241    3.1857 C   0  0  0  0  0  0  0  0  0  0  0  0
    1.5228    1.5219    5.5114 C   0  0  0  0  0  0  0  0  0  0  0  0
    1.2483    0.4140    6.5834 C   0  0  0  0  0  0  0  0  0  0  0  0
    0.5689    0.7895    7.5756 O   0  0  0  0  0  0  0  0  0  0  0  0
    1.7162   -0.7263    6.3078 O   0  5  0  0  0  0  0  0  0  0  0  0
   -6.8033    3.7101    2.0765 H   0  0  0  0  0  0  0  0  0  0  0  0
   -5.3410    4.1331    3.0119 H   0  0  0  0  0  0  0  0  0  0  0  0
   -6.7724    3.4555    3.8416 H   0  0  0  0  0  0  0  0  0  0  0  0
   -4.8186    3.1373    5.0224 H   0  0  0  0  0  0  0  0  0  0  0  0
   -3.1646    2.0387    6.4613 H   0  0  0  0  0  0  0  0  0  0  0  0
   -1.5459    0.1880    6.8926 H   0  0  0  0  0  0  0  0  0  0  0  0
   -0.5106   -1.9118    6.1771 H   0  0  0  0  0  0  0  0  0  0  0  0
   -3.0608   -2.0458    2.6969 H   0  0  0  0  0  0  0  0  0  0  0  0
   -4.5986   -0.1326    2.2267 H   0  0  0  0  0  0  0  0  0  0  0  0
   -1.2525   -2.9477    2.0751 H   0  0  0  0  0  0  0  0  0  0  0  0
   -1.8475   -4.5230    2.6423 H   0  0  0  0  0  0  0  0  0  0  0  0
    0.5180   -5.1597    3.2328 H   0  0  0  0  0  0  0  0  0  0  0  0
    0.3363   -4.7887    1.5081 H   0  0  0  0  0  0  0  0  0  0  0  0
    2.4059   -3.7651    2.4576 H   0  0  0  0  0  0  0  0  0  0  0  0
    1.4305   -2.8756    3.6410 H   0  0  0  0  0  0  0  0  0  0  0  0
   -0.4866   -1.1462    0.1885 H   0  0  0  0  0  0  0  0  0  0  0  0
   -1.6974    0.9911    0.6641 H   0  0  0  0  0  0  0  0  0  0  0  0
   -2.6344    3.3949    1.8309 H   0  0  0  0  0  0  0  0  0  0  0  0
   -3.0273    5.3620    3.3098 H   0  0  0  0  0  0  0  0  0  0  0  0
   -1.8217    5.5698    5.4678 H   0  0  0  0  0  0  0  0  0  0  0  0
   -0.1782    3.8440    6.1856 H   0  0  0  0  0  0  0  0  0  0  0  0
    1.6640   -0.8169    3.9346 H   0  0  0  0  0  0  0  0  0  0  0  0
    1.6168    2.4945    5.9973 H   0  0  0  0  0  0  0  0  0  0  0  0
    2.4501    1.3016    4.9711 H   0  0  0  0  0  0  0  0  0  0  0  0
  1  2  1  0  0  0  0
  1 35  1  0  0  0  0
  1 36  1  0  0  0  0
  1 37  1  0  0  0  0
  2  3  1  0  0  0  0
  3  4  1  0  0  0  0
  3 12  2  0  0  0  0
  4  5  2  0  0  0  0
  4 38  1  0  0  0  0
  5  6  1  0  0  0  0
  5 39  1  0  0  0  0
  6  7  1  0  0  0  0
  6 11  2  0  0  0  0
  7  8  2  0  0  0  0
  7 40  1  0  0  0  0
  8  9  1  0  0  0  0
  8 41  1  0  0  0  0
  9 10  2  0  0  0  0
  9 13  1  0  0  0  0
 10 11  1  0  0  0  0
 10 42  1  0  0  0  0
 11 12  1  0  0  0  0
 12 43  1  0  0  0  0
 13 14  1  0  0  0  0
 14 15  1  0  0  0  0
 14 44  1  0  0  0  0
 14 45  1  0  0  0  0
 15 16  1  0  0  0  0
 15 46  1  0  0  0  0
 15 47  1  0  0  0  0
 16 17  1  0  0  0  0
 16 48  1  0  0  0  0
 16 49  1  0  0  0  0
 17 18  1  0  0  0  0
 18 19  1  0  0  0  0
 18 30  2  0  0  0  0
 19 20  2  0  0  0  0
 19 50  1  0  0  0  0
 20 21  1  0  0  0  0
 20 51  1  0  0  0  0
 21 22  1  0  0  0  0
 21 29  2  0  0  0  0
 22 23  1  0  0  0  0
 22 27  2  0  0  0  0
 23 24  2  0  0  0  0
 23 52  1  0  0  0  0
 24 25  1  0  0  0  0
 24 53  1  0  0  0  0
 25 26  2  0  0  0  0
 25 54  1  0  0  0  0
 26 27  1  0  0  0  0
 26 55  1  0  0  0  0
 27 28  1  0  0  0  0
 28 29  1  0  0  0  0
 28 31  1  0  0  0  0
 29 30  1  0  0  0  0
 30 56  1  0  0  0  0
 31 32  1  0  0  0  0
 31 57  1  0  0  0  0
 31 58  1  0  0  0  0
 32 33  2  0  0  0  0
 32 34  1  0  0  0  0
M  CHG  1  34  -1
M  END
$$$$
