58
-1 1 C28H24NO5
C                    -7.706587295274     1.515465617700     1.423522818339
O                    -7.168163040937     0.206675477858     1.680732502563
C                    -6.109009482632     0.115905525700     2.539864743013
C                    -5.636352102302     1.212441178187     3.309769958588
C                    -4.555604822320     1.046434212535     4.148231410041
C                    -3.898142117401    -0.203676233722     4.271922286117
C                    -2.771441358324    -0.394902695130     5.114612228615
C                    -2.096079080793    -1.595391982671     5.144770699323
C                    -2.521367787539    -2.656628356018     4.306152828378
C                    -3.649199742280    -2.532292804515     3.523601060649
C                    -4.363607021627    -1.302116167444     3.475175985308
C                    -5.483259500098    -1.119163291182     2.628611830615
O                    -1.745104671822    -3.810512731444     4.291040426843
C                    -1.300148781827    -4.238640373382     2.993033955452
C                     0.206242235184    -4.025350413228     2.828010735527
C                     0.657947907504    -2.612249094458     3.176963682261
O                    -0.121564964841    -1.676321403046     2.437811335695
C                    -0.029331118014    -0.345681615552     2.806206983414
C                     1.005738982171     0.139839300754     3.632918065488
C                     1.056751183728     1.497759956784     3.956417969397
C                     0.087833912949     2.369111735128     3.459201665223
C                    -0.115035553074     3.798235788406     3.551336444785
C                     0.592711210853     4.835105006439     4.175138584216
C                     0.140370610549     6.146751353816     4.028188480569
C                    -1.016795981235     6.419513842018     3.268218916381
C                    -1.745381971264     5.402938887521     2.649781083376
C                    -1.286053040840     4.087382671988     2.795291946721
N                    -1.798659966759     2.904890828384     2.266670858965
C                    -0.963559589652     1.858955069031     2.635628641052
C                    -1.024537214106     0.499293070720     2.305059262990
C                    -2.884515510775     2.821143158355     1.292792980469
C                    -4.263260983413     3.449565644556     1.686844425262
O                    -5.119283175310     3.317223271431     0.767943724993
O                    -4.380861389634     3.973899809519     2.820669878133
H                    -8.436871907106     1.369722165096     0.623606486741
H                    -6.925420468974     2.216641260111     1.107920079950
H                    -8.222534705253     1.901397610794     2.312935716513
H                    -6.055566992401     2.203522999393     3.198318448678
H                    -4.172583504972     1.914789445546     4.676571033731
H                    -2.412687594556     0.444269282564     5.705649186274
H                    -1.207773385388    -1.728990823582     5.754687080576
H                    -3.981192543537    -3.362999380908     2.905424096134
H                    -5.841951249589    -1.936883382566     2.008241013803
H                    -1.832570801317    -3.684849024518     2.217593239330
H                    -1.543346282146    -5.302838980211     2.889898798789
H                     0.759133691742    -4.717092820972     3.475501080036
H                     0.471758858593    -4.264733334333     1.790166175101
H                     1.725509403756    -2.494542604081     2.941086401424
H                     0.523944452406    -2.439562578881     4.250136600114
H                     1.770161985346    -0.526486667352     4.014073101816
H                     1.861527245991     1.871002656082     4.586414704882
H                     1.485988102810     4.619972070230     4.758590215194
H                     0.677795026880     6.964319211500     4.503735634145
H                    -1.363381389129     7.446527833016     3.175326767812
H                    -2.665131699325     5.612746702875     2.118877119842
H                    -1.822079005848     0.075191678882     1.705066039249
H                    -3.075629633152     1.766771060114     1.092670642684
H                    -2.561940709174     3.276203824774     0.348176686101
