
  -OEChem-12122420533D

 58 62  0     0  0  0  0  0  0999 V2000
   -7.7066    1.5155    1.4235 C   0  0  0  0  0  0  0  0  0  0  0  0
   -7.1682    0.2067    1.6807 O   0  0  0  0  0  0  0  0  0  0  0  0
   -6.1090    0.1159    2.5399 C   0  0  0  0  0  0  0  0  0  0  0  0
   -5.6364    1.2124    3.3098 C   0  0  0  0  0  0  0  0  0  0  0  0
   -4.5556    1.0464    4.1482 C   0  0  0  0  0  0  0  0  0  0  0  0
   -3.8981   -0.2037    4.2719 C   0  0  0  0  0  0  0  0  0  0  0  0
   -2.7714   -0.3949    5.1146 C   0  0  0  0  0  0  0  0  0  0  0  0
   -2.0961   -1.5954    5.1448 C   0  0  0  0  0  0  0  0  0  0  0  0
   -2.5214   -2.6566    4.3062 C   0  0  0  0  0  0  0  0  0  0  0  0
   -3.6492   -2.5323    3.5236 C   0  0  0  0  0  0  0  0  0  0  0  0
   -4.3636   -1.3021    3.4752 C   0  0  0  0  0  0  0  0  0  0  0  0
   -5.4833   -1.1192    2.6286 C   0  0  0  0  0  0  0  0  0  0  0  0
   -1.7451   -3.8105    4.2910 O   0  0  0  0  0  0  0  0  0  0  0  0
   -1.3001   -4.2386    2.9930 C   0  0  0  0  0  0  0  0  0  0  0  0
    0.2062   -4.0254    2.8280 C   0  0  0  0  0  0  0  0  0  0  0  0
    0.6579   -2.6122    3.1770 C   0  0  0  0  0  0  0  0  0  0  0  0
   -0.1216   -1.6763    2.4378 O   0  0  0  0  0  0  0  0  0  0  0  0
   -0.0293   -0.3457    2.8062 C   0  0  0  0  0  0  0  0  0  0  0  0
    1.0057    0.1398    3.6329 C   0  0  0  0  0  0  0  0  0  0  0  0
    1.0568    1.4978    3.9564 C   0  0  0  0  0  0  0  0  0  0  0  0
    0.0878    2.3691    3.4592 C   0  0  0  0  0  0  0  0  0  0  0  0
   -0.1150    3.7982    3.5513 C   0  0  0  0  0  0  0  0  0  0  0  0
    0.5927    4.8351    4.1751 C   0  0  0  0  0  0  0  0  0  0  0  0
    0.1404    6.1468    4.0282 C   0  0  0  0  0  0  0  0  0  0  0  0
   -1.0168    6.4195    3.2682 C   0  0  0  0  0  0  0  0  0  0  0  0
   -1.7454    5.4029    2.6498 C   0  0  0  0  0  0  0  0  0  0  0  0
   -1.2861    4.0874    2.7953 C   0  0  0  0  0  0  0  0  0  0  0  0
   -1.7987    2.9049    2.2667 N   0  0  0  0  0  0  0  0  0  0  0  0
   -0.9636    1.8590    2.6356 C   0  0  0  0  0  0  0  0  0  0  0  0
   -1.0245    0.4993    2.3051 C   0  0  0  0  0  0  0  0  0  0  0  0
   -2.8845    2.8211    1.2928 C   0  0  0  0  0  0  0  0  0  0  0  0
   -4.2633    3.4496    1.6868 C   0  0  0  0  0  0  0  0  0  0  0  0
   -5.1193    3.3172    0.7679 O   0  0  0  0  0  0  0  0  0  0  0  0
   -4.3809    3.9739    2.8207 O   0  5  0  0  0  0  0  0  0  0  0  0
   -8.4369    1.3697    0.6236 H   0  0  0  0  0  0  0  0  0  0  0  0
   -6.9254    2.2166    1.1079 H   0  0  0  0  0  0  0  0  0  0  0  0
   -8.2225    1.9014    2.3129 H   0  0  0  0  0  0  0  0  0  0  0  0
   -6.0556    2.2035    3.1983 H   0  0  0  0  0  0  0  0  0  0  0  0
   -4.1726    1.9148    4.6766 H   0  0  0  0  0  0  0  0  0  0  0  0
   -2.4127    0.4443    5.7056 H   0  0  0  0  0  0  0  0  0  0  0  0
   -1.2078   -1.7290    5.7547 H   0  0  0  0  0  0  0  0  0  0  0  0
   -3.9812   -3.3630    2.9054 H   0  0  0  0  0  0  0  0  0  0  0  0
   -5.8420   -1.9369    2.0082 H   0  0  0  0  0  0  0  0  0  0  0  0
   -1.8326   -3.6848    2.2176 H   0  0  0  0  0  0  0  0  0  0  0  0
   -1.5433   -5.3028    2.8899 H   0  0  0  0  0  0  0  0  0  0  0  0
    0.7591   -4.7171    3.4755 H   0  0  0  0  0  0  0  0  0  0  0  0
    0.4718   -4.2647    1.7902 H   0  0  0  0  0  0  0  0  0  0  0  0
    1.7255   -2.4945    2.9411 H   0  0  0  0  0  0  0  0  0  0  0  0
    0.5239   -2.4396    4.2501 H   0  0  0  0  0  0  0  0  0  0  0  0
    1.7702   -0.5265    4.0141 H   0  0  0  0  0  0  0  0  0  0  0  0
    1.8615    1.8710    4.5864 H   0  0  0  0  0  0  0  0  0  0  0  0
    1.4860    4.6200    4.7586 H   0  0  0  0  0  0  0  0  0  0  0  0
    0.6778    6.9643    4.5037 H   0  0  0  0  0  0  0  0  0  0  0  0
   -1.3634    7.4465    3.1753 H   0  0  0  0  0  0  0  0  0  0  0  0
   -2.6651    5.6127    2.1189 H   0  0  0  0  0  0  0  0  0  0  0  0
   -1.8221    0.0752    1.7051 H   0  0  0  0  0  0  0  0  0  0  0  0
   -3.0756    1.7668    1.0927 H   0  0  0  0  0  0  0  0  0  0  0  0
   -2.5619    3.2762    0.3482 H   0  0  0  0  0  0  0  0  0  0  0  0
  1  2  1  0  0  0  0
  1 35  1  0  0  0  0
  1 36  1  0  0  0  0
  1 37  1  0  0  0  0
  2  3  1  0  0  0  0
  3  4  1  0  0  0  0
  3 12  2  0  0  0  0
  4  5  2  0  0  0  0
  4 38  1  0  0  0  0
  5  6  1  0  0  0  0
  5 39  1  0  0  0  0
  6  7  1  0  0  0  0
  6 11  2  0  0  0  0
  7  8  2  0  0  0  0
  7 40  1  0  0  0  0
  8  9  1  0  0  0  0
  8 41  1  0  0  0  0
  9 10  2  0  0  0  0
  9 13  1  0  0  0  0
 10 11  1  0  0  0  0
 10 42  1  0  0  0  0
 11 12  1  0  0  0  0
 12 43  1  0  0  0  0
 13 14  1  0  0  0  0
 14 15  1  0  0  0  0
 14 44  1  0  0  0  0
 14 45  1  0  0  0  0
 15 16  1  0  0  0  0
 15 46  1  0  0  0  0
 15 47  1  0  0  0  0
 16 17  1  0  0  0  0
 16 48  1  0  0  0  0
 16 49  1  0  0  0  0
 17 18  1  0  0  0  0
 18 19  1  0  0  0  0
 18 30  2  0  0  0  0
 19 20  2  0  0  0  0
 19 50  1  0  0  0  0
 20 21  1  0  0  0  0
 20 51  1  0  0  0  0
 21 22  1  0  0  0  0
 21 29  2  0  0  0  0
 22 23  1  0  0  0  0
 22 27  2  0  0  0  0
 23 24  2  0  0  0  0
 23 52  1  0  0  0  0
 24 25  1  0  0  0  0
 24 53  1  0  0  0  0
 25 26  2  0  0  0  0
 25 54  1  0  0  0  0
 26 27  1  0  0  0  0
 26 55  1  0  0  0  0
 27 28  1  0  0  0  0
 28 29  1  0  0  0  0
 28 31  1  0  0  0  0
 29 30  1  0  0  0  0
 30 56  1  0  0  0  0
 31 32  1  0  0  0  0
 31 57  1  0  0  0  0
 31 58  1  0  0  0  0
 32 33  2  0  0  0  0
 32 34  1  0  0  0  0
M  CHG  1  34  -1
M  END
$$$$
