11   
torsion grid (-165,)
C        0.0826870336   -0.4604425454    0.9866355071
N       -0.4862408453    0.2717733375    0.0866985632
N       -0.4662757304   -0.9313500224    2.1488464470
N       -2.5710275558    1.0586549127   -0.6093558477
O        1.3941582244   -0.7858570614    0.8384102603
O       -1.8736217724    0.4629948053    0.4631580850
H       -0.0309601701   -1.7619765827    2.5300280659
H       -1.4792662240   -0.9100343479    2.1667548548
H       -2.0772068896    1.9340307671   -0.8063772710
H       -2.4100258310    0.4527798831   -1.4194299286
H        1.6874024072   -0.3778009130    0.0040759157
11   
torsion grid (-150,)
C        0.0688341045   -0.4569929361    0.9899945746
N       -0.5036046155    0.2430532022    0.0693290049
N       -0.4800655409   -0.8938709521    2.1720385900
N       -2.5678152029    1.0880337772   -0.6121072853
O        1.3700035215   -0.8193028215    0.8305230092
O       -1.8807361728    0.4717267331    0.4558831743
H        0.0402552314   -1.6537267612    2.5964055129
H       -1.4775549509   -1.0694565628    2.1091621076
H       -2.0574421121    1.9547499661   -0.8050615658
H       -2.4209165831    0.4841131430   -1.4262573464
H        1.6786649675   -0.3955545551    0.0095348758
11   
torsion grid (-135,)
C        0.0430351003   -0.4664313071    0.9862467916
N       -0.5418588933    0.1770848251    0.0354108872
N       -0.5020489841   -0.8589502814    2.1928151024
N       -2.5621465999    1.1279656610   -0.6255558639
O        1.3418435837   -0.8432324639    0.8257402750
O       -1.9134004089    0.4257248488    0.4142096962
H        0.1188089594   -1.4906876455    2.6892504052
H       -1.4311273391   -1.2570807619    2.0939928731
H       -2.0237820377    1.9893333090   -0.7564398078
H       -2.4178258214    0.5705058440   -1.4725859827
H        1.6581250877   -0.4214597953    0.0063602753
11   
torsion grid (-120,)
C        0.0106938912   -0.4799921107    0.9818153495
N       -0.5822840801    0.1184871353    0.0092139123
N       -0.5347813242   -0.8425810217    2.2055332372
N       -2.5517815745    1.1674917926   -0.6433274583
O        1.3113907664   -0.8590833806    0.8221149060
O       -1.9510080900    0.3835549265    0.3681089487
H        0.1695952787   -1.3082682090    2.7720170094
H       -1.3406817568   -1.4539947965    2.1054190456
H       -1.9871676149    2.0194546608   -0.7081898601
H       -2.4010597712    0.6577400685   -1.5187464449
H        1.6267069220   -0.4500368323   -0.0045139939
11   
torsion grid (-105,)
C       -0.0214659125   -0.4936381226    0.9811591494
N       -0.6136879506    0.0973662597    0.0058757593
N       -0.5730762743   -0.8557350605    2.2107109166
N       -2.5402700658    1.2046953172   -0.6608351402
O        1.2800225489   -0.8761542025    0.8142380829
O       -1.9777457672    0.3840984771    0.3450236137
H        0.1792209677   -1.1451765396    2.8329599456
H       -1.2128947265   -1.6420241811    2.1200035070
H       -1.9552229769    2.0443904195   -0.6971434527
H       -2.3865177792    0.7100251011   -1.5442434469
H        1.5912605830   -0.4750752354   -0.0183042831
11   
torsion grid (-90,)
C        0.1900465378   -0.3653764687    0.7576071660
N       -0.5687351535    0.1731918336   -0.1347324997
N       -0.1512029597   -0.7450261723    2.0640692037
N       -2.7348153181    0.9240882455   -0.5635984800
O        1.5177282410   -0.4686072897    0.4987705279
O       -1.9398365945    0.1533773235    0.3154120932
H       -1.0335259046   -0.2796010182    2.2831951103
H       -0.3665970362   -1.7416007650    2.1072170475
H       -2.3037333499    1.8524814635   -0.5914092231
H       -2.5966833469    0.5159802705   -1.4924187941
H        1.6449371898   -0.2167958233   -0.4343919961
11   
torsion grid (-75,)
C        0.1709914082   -0.3604091250    0.7583516855
N       -0.5791163193    0.1714216953   -0.1466126057
N       -0.1758268971   -0.7032702196    2.0634559941
N       -2.7364756739    0.9525910352   -0.5731658371
O        1.4984450566   -0.4884535095    0.5054394877
O       -1.9543986045    0.1638974578    0.2996644367
H       -1.1321928396   -0.3883634603    2.2248191651
H       -0.1693321153   -1.7122736272    2.2049948162
H       -2.2966308016    1.8772739978   -0.5863595634
H       -2.5960458133    0.5553364192   -1.5064215621
H        1.6281649052   -0.2656390642   -0.4344458614
11   
torsion grid (-60,)
C        0.1513835331   -0.3563868169    0.7592176021
N       -0.5880960946    0.1797187707   -0.1528568742
N       -0.2057336272   -0.6890040444    2.0550989305
N       -2.7381049269    0.9821778472   -0.5839227154
O        1.4765028231   -0.5193466454    0.5106461847
O       -1.9636025395    0.1984999402    0.2987678199
H       -1.1992623740   -0.5134959470    2.1887940866
H        0.0010194397   -1.6584049507    2.2827881677
H       -2.2890172451    1.9022260161   -0.6091334659
H       -2.6010887099    0.5715852729   -1.5120254770
H        1.6135820269   -0.2954578430   -0.4276541033
11   
torsion grid (-45,)
C        0.1392403679   -0.3393315635    0.7717428953
N       -0.5647244339    0.3135850341   -0.0915367696
N       -0.2406202635   -0.7503853764    2.0307636634
N       -2.7362016245    1.0112934742   -0.5902386425
O        1.4465381335   -0.5888447606    0.4982111509
O       -1.9201135848    0.4333106558    0.4054399836
H       -1.2446297898   -0.6633995009    2.1597960183
H        0.0967856367   -1.6772752366    2.2710290834
H       -2.3005271081    1.9098536100   -0.8173135564
H       -2.6248082634    0.4219771512   -1.4204823278
H        1.6066432352   -0.2686718877   -0.4076913431
11   
torsion grid (-30,)
C        0.1249521395   -0.3418156952    0.7659442369
N       -0.5605312948    0.3398397138   -0.0911633147
N       -0.2770793465   -0.7771954338    2.0018950936
N       -2.7331868568    1.0346542625   -0.5880077321
O        1.4223741121   -0.6352050203    0.4867705946
O       -1.9057327789    0.5044102367    0.4246704829
H       -1.2838098655   -0.7731034729    2.1233272747
H        0.1945959645   -1.6095950991    2.3346212964
H       -2.2935558475    1.9158618901   -0.8692683143
H       -2.6389104841    0.4015306031   -1.3876615647
H        1.6084665633   -0.2572703854   -0.3914078979
11   
torsion grid (-15,)
C        0.1135079560   -0.3567639657    0.7531631739
N       -0.5658132463    0.3317130543   -0.1046850119
N       -0.3050339327   -0.8179693204    1.9662218083
N       -2.7318729926    1.0558358154   -0.5869546265
O        1.4079077959   -0.6656612779    0.4732457822
O       -1.9056002997    0.5158380451    0.4215329450
H       -1.3059517014   -0.8499727095    2.1091709767
H        0.2695211445   -1.5154347263    2.4183203807
H       -2.2812086821    1.9300123866   -0.8729688454
H       -2.6504413916    0.4201179699   -1.3860440113
H        1.6125676553   -0.2456036721   -0.3812824162
11   
torsion grid (0,)
C        0.1025617345   -0.4048779514    0.7255646832
N       -0.5927214251    0.2427768380   -0.1526890354
N       -0.3242390282   -0.9037767333    1.9127407558
N       -2.7345040477    1.0612543802   -0.5926632465
O        1.4196583186   -0.6403008405    0.4800302092
O       -1.9514907393    0.3581442213    0.3461629127
H       -1.2905322342   -0.7727920231    2.1727033803
H        0.3166194499   -1.3941708654    2.5170184554
H       -2.2551574719    1.9545871184   -0.7393551101
H       -2.6438721871    0.5435435953   -1.4719223603
H        1.6112599359   -0.2422761399   -0.3878704889
11   
torsion grid (15,)
C        0.0866948408   -0.4540937043    0.7026199877
N       -0.6154939031    0.1513697751   -0.1983385358
N       -0.3537308866   -0.9947293120    1.8744294044
N       -2.7311704856    1.0583795639   -0.5856349997
O        1.4210888377   -0.6178143884    0.4980955297
O       -1.9914383077    0.2042469594    0.2597201297
H       -1.2590355180   -0.6796576145    2.1976142965
H        0.3454684617   -1.2397353417    2.5614934250
H       -2.2286975109    1.9510182680   -0.5910345389
H       -2.6284727613    0.6694547486   -1.5275892275
H        1.6123695384   -0.2463273544   -0.3816553156
11   
torsion grid (30,)
C        0.0880093727   -0.4759145709    0.6963070430
N       -0.6170098848    0.1348219374   -0.1976300379
N       -0.3532111132   -1.0535435519    1.8583864443
N       -2.7234391765    1.0700328514   -0.5696381285
O        1.4185760423   -0.6489914191    0.4796142249
O       -1.9875427080    0.2074430813    0.2704520580
H       -1.2738763493   -0.7370378596    2.1420559935
H        0.3353487704   -1.0986597592    2.5999545687
H       -2.2105137389    1.9565865874   -0.5801142414
H       -2.6344200771    0.6785326437   -1.5118233198
H        1.6156611678   -0.2311583408   -0.3778444495
11   
torsion grid (45,)
C        0.0984358260   -0.4874495703    0.6948255850
N       -0.6099004575    0.1495950129   -0.1766976348
N       -0.3379811849   -1.1037943543    1.8472370715
N       -2.7160740611    1.0843508869   -0.5523019849
O        1.4185989047   -0.6902635652    0.4455466812
O       -1.9670997448    0.2627527929    0.3168664581
H       -1.2917912249   -0.8345849969    2.0708973702
H        0.2898068159   -0.9766057647    2.6348921270
H       -2.1993949921    1.9662011175   -0.6185573827
H       -2.6491917117    0.6442084528   -1.4745747686
H        1.6221741357   -0.2122984120   -0.3784133665
11   
torsion grid (60,)
C        0.1188560273   -0.4744590940    0.6979034607
N       -0.5627830425    0.2716024522   -0.1051406717
N       -0.3373378528   -1.1667163093    1.8070213632
N       -2.7071837972    1.0944159634   -0.5256397921
O        1.4140818278   -0.7459324988    0.3929817282
O       -1.8868531434    0.4770984174    0.4434444063
H       -1.3190879895   -0.9484513834    1.9629190784
H        0.1946166448   -0.9556459503    2.6477360565
H       -2.2201446364    1.9543861126   -0.7939282661
H       -2.6801245335    0.4825172048   -1.3464026882
H        1.6435428007   -0.1867033152   -0.3711745196
11   
torsion grid (75,)
C        0.1380832555   -0.4798628683    0.6963198210
N       -0.5527458974    0.2671426245   -0.0969038932
N       -0.3067407010   -1.1784744798    1.8166802332
N       -2.6959106747    1.0998355831   -0.4967034539
O        1.4220060268   -0.7659239075    0.3613503494
O       -1.8647082125    0.4894694651    0.4687345071
H       -1.3184828730   -1.0645805479    1.8736549660
H        0.0820803927   -0.7996473524    2.6789281512
H       -2.2102093501    1.9558978818   -0.7791031697
H       -2.6815054184    0.4801896863   -1.3118768286
H        1.6457157574   -0.2019344854   -0.4013605270
11   
torsion grid (90,)
C        0.1571812261   -0.4846748456    0.6956560715
N       -0.5467866883    0.2528612177   -0.0933593752
N       -0.2679270911   -1.1687223790    1.8440419309
N       -2.6848009855    1.1056334406   -0.4693235478
O        1.4324056786   -0.7783246539    0.3379353269
O       -1.8508296881    0.4764684779    0.4831938343
H       -1.2878939276   -1.2029379093    1.8036999378
H       -0.0601322949   -0.6291378016    2.6849266285
H       -2.1976374383    1.9644916196   -0.7401999736
H       -2.6765811516    0.4990534018   -1.2942551537
H        1.6405846662   -0.2325989685   -0.4425955241
11   
torsion grid (105,)
C       -0.0257486642   -0.5075850138    0.9747234372
N       -0.5853014822    0.1980900919    0.0581443681
N       -0.6285266782   -1.0505248097    2.1100989604
N       -2.6056587981    0.9626982689   -0.7880049134
O        1.3207727617   -0.7274002765    0.8934041225
O       -1.9847478143    0.3578351725    0.3301006782
H        0.0245853878   -1.6974406410    2.5481304837
H       -0.8538515257   -0.3337275485    2.7965984462
H       -2.0779327978    1.8210384252   -0.9710489842
H       -2.4237280292    0.3400914876   -1.5804364617
H        1.6097602871   -0.4103029237    0.0177345147
11   
torsion grid (120,)
C       -0.0031877038   -0.5280106751    0.9577652805
N       -0.5674834645    0.1709449893    0.0365731846
N       -0.5985350374   -1.0680643645    2.0892630105
N       -2.6042350434    0.9720169001   -0.7463887689
O        1.3398029327   -0.7541365568    0.8783975506
O       -1.9662797975    0.3272770564    0.3378667962
H        0.0961485791   -1.5664932735    2.6394257498
H       -1.0411166656   -0.3609687298    2.6700094600
H       -2.0745021020    1.8330832496   -0.9102745420
H       -2.4386085086    0.3752929378   -1.5620551356
H        1.6276194578   -0.4481693008   -0.0011379341
11   
torsion grid (135,)
C        0.0192100012   -0.5512970391    0.9431708370
N       -0.5606292122    0.1068872822   -0.0006961144
N       -0.5603878614   -1.0643425728    2.0867810631
N       -2.6011160288    0.9819619087   -0.7030497787
O        1.3596462084   -0.7777189188    0.8618741683
O       -1.9595323824    0.2577473258    0.3260325071
H        0.1434202525   -1.3932697807    2.7405898356
H       -1.1997373773   -0.4119129740    2.5306597239
H       -2.0637750904    1.8468575651   -0.8138198226
H       -2.4492660275    0.4407985918   -1.5592068127
H        1.6417901646   -0.4829391554   -0.0228909550
11   
torsion grid (150,)
C        0.0374117203   -0.5694107528    0.9327025626
N       -0.5610176488    0.0328320606   -0.0391862744
N       -0.5221255372   -1.0403583227    2.0965371520
N       -2.5926366074    0.9934540493   -0.6630218015
O        1.3737739913   -0.8046804944    0.8403583330
O       -1.9583402233    0.1898043001    0.3087440571
H        0.1604878314   -1.2098958059    2.8269480610
H       -1.3211040618   -0.4961349548    2.4051226800
H       -2.0409519489    1.8546584948   -0.7187839708
H       -2.4545690304    0.5089543606   -1.5547084557
H        1.6486941616   -0.5064507020   -0.0452676918
11   
torsion grid (165,)
C        0.0518247225   -0.5708209150    0.9303957468
N       -0.5611047558   -0.0016938772   -0.0545493596
N       -0.4895883857   -1.0098518327    2.1085180457
N       -2.5840023668    1.0069839806   -0.6380351739
O        1.3797855791   -0.8369914745    0.8142279743
O       -1.9499908034    0.1855154776    0.3183592473
H        0.1558908546   -1.0766640959    2.8854558448
H       -1.4003335815   -0.6175895797    2.3173204075
H       -2.0198873725    1.8602128969   -0.6928157166
H       -2.4632917851    0.5282026860   -1.5353404099
H        1.6503205412   -0.5145310332   -0.0640919547
11   
torsion grid (180,)
C        0.0635244955   -0.5439112315    0.9396574666
N       -0.5471684358    0.0511787429   -0.0327235955
N       -0.4693354616   -0.9660454390    2.1193971025
N       -2.5820973845    1.0228094008   -0.6387942569
O        1.3746433565   -0.8728388502    0.7895316559
O       -1.9159050027    0.3065061153    0.3774539898
H        0.1461150707   -1.1080778985    2.9070040400
H       -1.4425182019   -0.7473419815    2.2820418145
H       -2.0186160909    1.8623608405   -0.8026966298
H       -2.4927059667    0.4514430852   -1.4841828408
H        1.6536862680   -0.5033105511   -0.0672440947
