27   
torsion grid (-165,)
C        5.1074027047   -1.4164486087    0.2221522445
C       -0.2860035076   -1.7735885250    1.0832029485
C        5.9194231821   -0.5512343807    0.9600236756
C       -1.4450209554   -1.5816655181    0.3241592747
C        3.8519154840   -0.9770636845   -0.1988274254
C        0.8621323052   -1.0389073551    0.7899155071
C        5.4765368299    0.7419175412    1.2531944069
C       -1.4513224082   -0.6532665945   -0.7193761425
C        3.4087543354    0.3248371084    0.0849138973
C        0.8931158161   -0.0992892555   -0.2596081959
C        4.2317774760    1.2129936027    0.8126587869
C       -0.2975065131    0.0763685849   -0.9881416707
C        2.0892333807    0.7833837564   -0.4686720411
C        3.8129039738    2.6293382386    1.1337841828
O        1.9900026787    1.8719171545   -1.0231425945
F       -0.3465633149    0.9451795404   -2.0153547757
H        5.4441580428   -2.4212333842   -0.0182073844
H       -0.2790776627   -2.4859704583    1.9029713476
H        6.8950572679   -0.8805802007    1.3085310605
H       -2.3450287226   -2.1501403759    0.5423373507
H        3.2111906487   -1.6449549326   -0.7684758977
H        1.7514422153   -1.1742753519    1.3955664716
H        6.1135941814    1.4054366003    1.8334828496
H       -2.3337378166   -0.4829158142   -1.3285427382
H        4.4564832439    3.0499034939    1.9113425871
H        2.7763074456    2.6815648490    1.4784716968
H        3.8771516012    3.2635201470    0.2455100895
27   
torsion grid (-150,)
C        4.9992592931   -1.4130625519    0.1873364745
C       -0.3699211017   -1.7750930023    1.1118304354
C        5.9042185291   -0.5690502639    0.8361343580
C       -1.4358022491   -1.6933020761    0.2094958126
C        3.7287220609   -0.9327237514   -0.1278276396
C        0.7593265878   -0.9777787934    0.9242172171
C        5.5349986401    0.7426029051    1.1474476284
C       -1.3707412605   -0.8104979817   -0.8716332904
C        3.3561233754    0.3893495097    0.1718971314
C        0.8490493670   -0.0750196646   -0.1509518000
C        4.2739554186    1.2555913786    0.8130182729
C       -0.2430057478   -0.0112582716   -1.0293646972
C        2.0072527762    0.8765230201   -0.2621090927
C        3.9467199521    2.6900471152    1.1572559227
O        1.8347610507    2.0229441400   -0.6604859475
F       -0.2048957015    0.8134189182   -2.0956128872
H        5.2772366006   -2.4324721081   -0.0659694854
H       -0.4191080917   -2.4551716196    1.9572002746
H        6.8949321440   -0.9292005159    1.1019977619
H       -2.3169227768   -2.3150636767    0.3427547577
H        3.0186363334   -1.5840850222   -0.6290105135
H        1.5836257228   -1.0361176546    1.6280936798
H        6.2447477951    1.3884955316    1.6590690784
H       -2.1776245702   -0.7306865170   -1.5936087673
H        4.6788433862    3.0846770196    1.8673761896
H        2.9491320183    2.7904968457    1.5927270417
H        3.9546469209    3.3162227311    0.2611454398
27   
torsion grid (-135,)
C        4.7685183491    0.1486201817   -1.1731368959
C       -0.4029619584   -1.6649860152   -0.8550794631
C        5.8215381566    0.0540395768   -0.2598432617
C       -1.4958377054   -0.8471822235   -1.1629492874
C        3.4726270461    0.3378840943   -0.6960062376
C        0.6827807814   -1.1378823323   -0.1541728752
C        5.5704692880    0.1618046901    1.1109194463
C       -1.5034737113    0.4925776534   -0.7651206443
C        3.2132961496    0.4601440170    0.6815841847
C        0.6909280519    0.1997790553    0.2735145444
C        4.2797302872    0.3790110909    1.6123347031
C       -0.4189551860    0.9886306411   -0.0485767323
C        1.8122553556    0.7305419563    1.1274941973
C        4.0855159906    0.5045416992    3.1050731392
O        1.5552361486    1.3444919806    2.1568695151
F       -0.4368271991    2.2919060088    0.3071482065
H        4.9531965019    0.0724361897   -2.2411487225
H       -0.3954809802   -2.7065693718   -1.1628444891
H        6.8379049756   -0.1052667248   -0.6113723650
H       -2.3409405376   -1.2471121076   -1.7165186678
H        2.6495336677    0.4107028155   -1.3999628970
H        1.5365387461   -1.7677402331    0.0795105058
H        6.3978446413    0.0792865633    1.8117552620
H       -2.3307350534    1.1551032404   -1.0006911824
H        4.9895217339    0.1839726379    3.6305230745
H        3.2419431050   -0.0926010059    3.4605580591
H        3.8646579019    1.5383176653    3.3839371995
27   
torsion grid (-120,)
C        4.7059479964    0.1728060568   -1.1661906619
C       -0.5162797864   -1.6858188912   -0.8228602493
C        5.7978218628    0.1709560903   -0.2947005403
C       -1.4827374843   -0.7664730995   -1.2460671837
C        3.4191801742    0.2715958325   -0.6408185949
C        0.5639860010   -1.2525615480   -0.0512322493
C        5.5911474061    0.2771591995    1.0835545126
C       -1.3717083636    0.5820530000   -0.8952646248
C        3.2019886486    0.3905845458    0.7452029909
C        0.6838167622    0.0912434335    0.3311630674
C        4.3084300015    0.3991386478    1.6348893735
C       -0.2957277103    0.9826819219   -0.1094432348
C        1.8026908268    0.5441750032    1.2388755437
C        4.1682743427    0.5235013779    3.1331690835
O        1.5262504193    1.0116324028    2.3376482774
F       -0.1848909350    2.2941584198    0.2088100730
H        4.8545115826    0.0952993175   -2.2396729054
H       -0.6007972188   -2.7333490831   -1.0973047750
H        6.8092957505    0.0853577817   -0.6841057935
H       -2.3210938627   -1.0947003341   -1.8542126842
H        2.5677492451    0.2721422133   -1.3134846038
H        1.3254010131   -1.9597345783    0.2674452099
H        6.4490047956    0.2685064219    1.7516493882
H       -2.0982985409    1.3207833439   -1.2196242249
H        5.1302695209    0.3328362305    3.6172179666
H        3.4273039652   -0.1734514889    3.5330814413
H        3.8237881542    1.5224709033    3.4133387404
27   
torsion grid (-105,)
C        4.6619375238    0.1905047114   -1.1606456467
C       -0.6681830153   -1.6945272853   -0.7960892430
C        5.7717986791    0.3042519403   -0.3199918084
C       -1.4901654231   -0.6830238378   -1.3052369165
C        3.3862731306    0.1872688404   -0.6013025831
C        0.4129856278   -1.3664287202    0.0260529552
C        5.5928637924    0.4180767465    1.0614878970
C       -1.2333416836    0.6549816473   -0.9917666881
C        3.1939121079    0.3074603311    0.7889624431
C        0.6799667228   -0.0331403578    0.3622557793
C        4.3200054567    0.4290124317    1.6477954818
C       -0.1564887082    0.9501216481   -0.1621347379
C        1.8011799359    0.3247042532    1.3157929965
C        4.2139482840    0.5644508832    3.1473226424
O        1.5163482807    0.6008596141    2.4754208396
F        0.1035222975    2.2501250708    0.1279934149
H        4.7885861830    0.1044575811   -2.2362463877
H       -0.8663580445   -2.7341921470   -1.0403852095
H        6.7763156275    0.3039976071   -0.7359333619
H       -2.3292338994   -0.9315705049   -1.9490482520
H        2.5218179756    0.0980666709   -1.2505631209
H        1.0596667707   -2.1485971364    0.4156032399
H        6.4653817507    0.5033350852    1.7046383643
H       -1.8477507161    1.4630537166   -1.3770331140
H        5.2113734216    0.5543824930    3.5958010166
H        3.6199051444   -0.2417508834    3.5855953208
H        3.7089952394    1.4930929002    3.4260516144
27   
torsion grid (-90,)
C        4.6707565213    0.1884571184   -1.1701865742
C       -0.8244560625   -1.6948537030   -0.7696250007
C        5.7701645587    0.4406464350   -0.3461073282
C       -1.4996837653   -0.6063852772   -1.3328824623
C        3.4069923393    0.0742724240   -0.5961812483
C        0.2692185938   -1.4777246679    0.0729666369
C        5.5925594362    0.5748427488    1.0336987538
C       -1.0822028882    0.6989110553   -1.0559722036
C        3.2163570217    0.2036476688    0.7935149546
C        0.7069410231   -0.1783883260    0.3571837004
C        4.3321701877    0.4621932028    1.6359093626
C        0.0107773077    0.8827261942   -0.2159948125
C        1.8382019885    0.0663884668    1.3368303148
C        4.2277693026    0.6255779949    3.1325756377
O        1.5687563724    0.1069823491    2.5320665665
F        0.4273909057    2.1494412640    0.0469743255
H        4.7962147011    0.0841171998   -2.2442940883
H       -1.1502584696   -2.7089638775   -0.9824771991
H        6.7652612690    0.5347849918   -0.7738759236
H       -2.3518211460   -0.7696026059   -1.9867049892
H        2.5506325479   -0.1217545638   -1.2326561927
H        0.7930968199   -2.3202058716    0.5170417487
H        6.4564068100    0.7742661865    1.6631049331
H       -1.5862715877    1.5644578394   -1.4750863650
H        5.2128045602    0.8432852196    3.5549603260
H        3.8294746078   -0.2751665563    3.6069161511
H        3.5404501228    1.4325632401    3.3998500292
27   
torsion grid (-75,)
C        4.7175760359    0.2152496675   -1.1595567588
C       -0.9625083795   -1.6570197391   -0.6862359064
C        5.7864617404    0.5725330967   -0.3340712613
C       -1.4949123808   -0.5211131006   -1.3069242563
C        3.4650471752   -0.0000604744   -0.5895838585
C        0.1464689229   -1.5374936834    0.1546064354
C        5.5911265195    0.7057126335    1.0434997031
C       -0.9185443792    0.7339297118   -1.0902731106
C        3.2600529514    0.1191663528    0.7981829591
C        0.7554482321   -0.2933562291    0.3649094760
C        4.3438540765    0.4815947709    1.6417248826
C        0.1933360106    0.8183477012   -0.2593810043
C        1.9037175880   -0.1608633315    1.3424146002
C        4.2145247379    0.6473117422    3.1365082394
O        1.6762777731   -0.3470293189    2.5333048253
F        0.7574397059    2.0370251857   -0.0486105626
H        4.8572569223    0.1099388199   -2.2318361508
H       -1.4153833802   -2.6306744058   -0.8496783047
H        6.7709005465    0.7513065367   -0.7594868755
H       -2.3624193749   -0.6076563027   -1.9552055411
H        2.6317944993   -0.2779447737   -1.2268031858
H        0.5531236280   -2.4114214915    0.6561722748
H        6.4294909573    0.9927273670    1.6736126568
H       -1.3159225708    1.6356975224   -1.5461357294
H        5.1395115956    1.0597402787    3.5492767616
H        4.0054255489   -0.3085833087    3.6242150229
H        3.3840376956    1.3074082418    3.3995395451
27   
torsion grid (-60,)
C        4.7582220423    0.2732908241   -1.1684801365
C       -1.1074998661   -1.6008574050   -0.5683405262
C        5.7867174971    0.7077098171   -0.3285501861
C       -1.5192427265   -0.4548392165   -1.2593700479
C        3.5175506246   -0.0353320987   -0.6155275015
C        0.0242011101   -1.5519341516    0.2465307295
C        5.5653102018    0.8198778330    1.0468923693
C       -0.7998877088    0.7370774960   -1.1367778759
C        3.2906468821    0.0598822594    0.7696804003
C        0.7824924632   -0.3769864430    0.3582129660
C        4.3325701504    0.4944734413    1.6285607263
C        0.3346706233    0.7501498135   -0.3322827323
C        1.9594942102   -0.3438343586    1.3023000994
C        4.1700093560    0.6356238263    3.1232970869
O        1.7887291423   -0.7151787724    2.4599944825
F        1.0217314535    1.9150875637   -0.2080535136
H        4.9190817118    0.1818842083   -2.2390933294
H       -1.6725939589   -2.5241651570   -0.6573634051
H        6.7593749240    0.9634393663   -0.7415470854
H       -2.4052382675   -0.4833031242   -1.8875946379
H        2.7147153141   -0.3726835814   -1.2636886049
H        0.3398623015   -2.4256979148    0.8093186468
H        6.3708690816    1.1690787470    1.6884112298
H       -1.1056966313    1.6475963471   -1.6430068249
H        5.0228706617    1.1753020351    3.5445105472
H        4.1004445454   -0.3433256447    3.6051599230
H        3.2523396803    1.1686704339    3.3844381451
27   
torsion grid (-45,)
C        4.7953636201    0.3212110750   -1.1810942818
C       -1.2359717260   -1.5325929627   -0.4418474186
C        5.7780471666    0.8196260716   -0.3218117388
C       -1.5559934594   -0.4009540854   -1.2023269935
C        3.5667694393   -0.0681827268   -0.6522993062
C       -0.0805666006   -1.5392826093    0.3379590787
C        5.5256745747    0.9106779747    1.0498274031
C       -0.7226364827    0.7199483313   -1.1781343767
C        3.3119940390    0.0064733878    0.7281387774
C        0.7914540263   -0.4380411157    0.3567589193
C        4.3077283549    0.4981892020    1.6071107609
C        0.4323591283    0.6794663223   -0.4033907771
C        2.0080452456   -0.5030486099    1.2420280798
C        4.1073213938    0.6102307604    3.1002738511
O        1.9012860928   -1.0260867354    2.3485902704
F        1.2101894186    1.7904091370   -0.3711421041
H        4.9814098018    0.2437794472   -2.2487528879
H       -1.8881344093   -2.4010461097   -0.4545406124
H        6.7384679738    1.1413184757   -0.7169208450
H       -2.4582610832   -0.3845426067   -1.8075107580
H        2.7977053982   -0.4531597562   -1.3155408541
H        0.1738622575   -2.3996353445    0.9496760650
H        6.2945041004    1.3096008664    1.7073513817
H       -0.9558493194    1.6209736322   -1.7371914571
H        4.8896066206    1.2356085994    3.5394941324
H        4.1387391157   -0.3747215963    3.5738054430
H        3.1343528688    1.0404743970    3.3510750672
27   
torsion grid (-30,)
C        4.8825285155    0.3810707386   -1.1723344939
C       -1.3223256785   -1.4552436589   -0.3017951716
C        5.8031905402    0.9342009972   -0.2783113347
C       -1.5844238226   -0.3506568234   -1.1225180106
C        3.6625230132   -0.0858035077   -0.6875874144
C       -0.1358515854   -1.5098880641    0.4248923902
C        5.5005801923    0.9992872858    1.0846710395
C       -0.6625828175    0.6944682898   -1.2049883316
C        3.3600722228   -0.0349543297    0.6829356398
C        0.8225195491   -0.4824503975    0.3475788589
C        4.2936258986    0.5048797006    1.5976041346
C        0.5200047177    0.6102281780   -0.4754209768
C        2.0811780441   -0.6431458105    1.1568307976
C        4.0339906723    0.5811791062    3.0844311956
O        2.0354501850   -1.3018029163    2.1934795238
F        1.3663724634    1.6663300300   -0.5461907080
H        5.1086521027    0.3221145446   -2.2334453840
H       -2.0408401777   -2.2667629791   -0.2322542745
H        6.7539703419    1.3180702947   -0.6397259022
H       -2.5082716793   -0.2966986923   -1.6919953311
H        2.9384413263   -0.5100142594   -1.3778441098
H        0.0846165632   -2.3524605667    1.0729505686
H        6.2207673730    1.4397748618    1.7702391719
H       -0.8464968596    1.5752479374   -1.8125603575
H        4.7474334736    1.2606945731    3.5588702947
H        4.1288596365   -0.4046475571    3.5475200574
H        3.0224016780    0.9318744537    3.3059546453
27   
torsion grid (-15,)
C        5.0032774468    0.4246731574   -1.1673998530
C       -1.4030348342   -1.3499880574   -0.1251809280
C        5.8426730975    1.0293964531   -0.2278955476
C       -1.6367182893   -0.2772414442   -0.9959309264
C        3.7891913472   -0.1152523570   -0.7460788744
C       -0.1725397431   -1.4639492485    0.5133011961
C        5.4682522273    1.0718012010    1.1182315641
C       -0.6413448299    0.6762823741   -1.2107193895
C        3.4174604012   -0.0843215628    0.6059985757
C        0.8583788512   -0.5239935709    0.3131066467
C        4.2685035492    0.5032544915    1.5671566644
C        0.5827906571    0.5386704490   -0.5604008836
C        2.1603387479   -0.7794970397    1.0242791190
C        3.9227788214    0.5475025754    3.0381747520
O        2.1743400414   -1.5659162624    1.9685076856
F        1.4919795431    1.5212125093   -0.7653987587
H        5.2859478524    0.3826796913   -2.2157196249
H       -2.1766998066   -2.0925434371    0.0472697598
H        6.7857133226    1.4705369915   -0.5408770968
H       -2.5931142382   -0.1781599808   -1.5021733060
H        3.1243857896   -0.5756811402   -1.4724640749
H        0.0338346225   -2.2881935079    1.1885985015
H        6.1250218744    1.5513815901    1.8403791294
H       -0.7963509793    1.5303637931   -1.8627889217
H        4.5636985951    1.2641584666    3.5589540793
H        4.0536906752   -0.4358299911    3.4981150887
H        2.8808866582    0.8356758207    3.2050373126
27   
torsion grid (0,)
C        5.6281898268    0.0927417512   -1.0166365353
C       -1.3565591842   -1.2345780426    0.2533247034
C        5.9640246294    1.0919442257   -0.0998687575
C       -1.6371592051    0.0785862766   -0.1484746368
C        4.4697769798   -0.6616605146   -0.8157217228
C       -0.0357259124   -1.6318855150    0.4303119798
C        5.1430617661    1.3290047046    1.0070762346
C       -0.5965562392    0.9798507656   -0.3742827708
C        3.6361143557   -0.4015367730    0.2771417049
C        1.0402630330   -0.7481812373    0.2103556991
C        3.9668912613    0.5972573302    1.2114865483
C        0.7173568658    0.5563516937   -0.1915377341
C        2.4256616873   -1.2758617921    0.4541404010
C        3.0874790870    0.8813981499    2.4081681841
O        2.5759724949   -2.4580190746    0.7470468242
F        1.6890909473    1.4660974381   -0.4377414744
H        6.2664007158   -0.1066625567   -1.8732878822
H       -2.1656782201   -1.9375789075    0.4288733534
H        6.8681407220    1.6792918131   -0.2384379589
H       -2.6651518251    0.4018421295   -0.2881099239
H        4.2066847288   -1.4561168966   -1.5091251546
H        0.2095164452   -2.6408644168    0.7462921328
H        5.4213985331    2.0948562590    1.7278769169
H       -0.7805615538    2.0014460988   -0.6922903763
H        3.6377039087    1.4372852365    3.1720749170
H        2.7144987536   -0.0385387697    2.8684702822
H        2.2177721922    1.4841452809    2.1240959088
27   
torsion grid (15,)
C        5.7755981768    0.0808183884   -0.8863068718
C       -1.3194325874   -1.1697051764    0.5031503706
C        5.9953035535    1.1070264642    0.0370101250
C       -1.6162724536    0.1380815435    0.0969907425
C        4.6167750905   -0.6891340195   -0.7879870160
C        0.0027838796   -1.6027006721    0.5248668244
C        5.0605313994    1.3500273647    1.0468808333
C       -0.5886030020    0.9998641895   -0.2890397465
C        3.6598176529   -0.4168988351    0.1997607775
C        1.0638119375   -0.7546660288    0.1526717635
C        3.8774337956    0.6055721330    1.1444746420
C        0.7261113884    0.5440540757   -0.2515544151
C        2.4567887005   -1.3120102896    0.2342508495
C        2.9003872564    0.9066332987    2.2602650428
O        2.6090264858   -2.5300096441    0.2805170723
F        1.6858464084    1.4085138134   -0.6599730214
H        6.5038061282   -0.1251891620   -1.6661104956
H       -2.1176250452   -1.8430659050    0.8016879485
H        6.8992144788    1.7083245810   -0.0188214946
H       -2.6452577413    0.4866250289    0.0753431824
H        4.4383493358   -1.5070471498   -1.4801793464
H        0.2574197042   -2.6118766395    0.8329538072
H        5.2541703322    2.1305694024    1.7795910668
H       -0.7854908183    2.0135763645   -0.6241953448
H        3.4199641026    1.3540027661    3.1122310018
H        2.3866074619    0.0106121833    2.6176658964
H        2.1340488219    1.6178979219    1.9338316925
27   
torsion grid (30,)
C        5.8793164127    0.0318936957   -0.8216062898
C       -1.2644237961   -1.0826549220    0.6272484698
C        6.0468716663    1.0350019373    0.1377349800
C       -1.5667253161    0.2109624007    0.1825017739
C        4.7048008884   -0.7177832133   -0.8246116512
C        0.0445456666   -1.5518827156    0.5503356261
C        5.0439790538    1.2709665695    1.0810012273
C       -0.5604174892    1.0269587824   -0.3387243536
C        3.6788528292   -0.4538942066    0.0966907202
C        1.0832736307   -0.7441181829    0.0540727668
C        3.8437941326    0.5462153254    1.0784906095
C        0.7411846308    0.5381458492   -0.3898234778
C        2.4658511195   -1.3271510921   -0.0015855366
C        2.8096982525    0.8464762958    2.1428865206
O        2.5906294284   -2.5401154418   -0.1514380451
F        1.6912273945    1.3489971149   -0.9167380010
H        6.6584609463   -0.1690886821   -1.5518626756
H       -2.0481805694   -1.7192946733    1.0273226341
H        6.9608453355    1.6231525775    0.1617166244
H       -2.5859252176    0.5841296660    0.2337279695
H        4.5607596242   -1.5160644353   -1.5465636856
H        0.2993005720   -2.5559807303    0.8753087807
H        5.1967704590    2.0317670481    1.8433708857
H       -0.7661411202    2.0263564387   -0.7097654959
H        3.2904639773    1.2838751491    3.0223401506
H        2.2697407863   -0.0458929889    2.4674107265
H        2.0665066060    1.5667451814    1.7848669794
27   
torsion grid (45,)
C        5.9445810976   -0.0049457590   -0.7513492678
C       -1.1962593682   -1.0312455994    0.7944987321
C        6.0789396412    0.9734179710    0.2385372272
C       -1.5429142996    0.2257645034    0.2829280249
C        4.7568093296   -0.7263943288   -0.8348312327
C        0.1049400638   -1.5070118272    0.6415018368
C        5.0304056689    1.2107842508    1.1297266742
C       -0.5889764054    1.0026072960   -0.3793909925
C        3.6858946274   -0.4661506387    0.0376423912
C        1.0919797335   -0.7298592119    0.0142075297
C        3.8165926671    0.5121752975    1.0490387968
C        0.7066297029    0.5110454618   -0.4986107287
C        2.4659464773   -1.3086575974   -0.1669358887
C        2.7434271149    0.8193972501    2.0727196650
O        2.5684760859   -2.4912565205   -0.4818593224
F        1.6195224324    1.2767610759   -1.1478775690
H        6.7573392692   -0.2051980628   -1.4441771717
H       -1.9412269493   -1.6384457830    1.3004719562
H        7.0010647403    1.5426354391    0.3255244620
H       -2.5573762870    0.5998121713    0.3901402697
H        4.6321395656   -1.5022719446   -1.5839282534
H        0.3860237103   -2.4895634974    1.0088557306
H        5.1567938883    1.9532614022    1.9144411737
H       -0.8323738924    1.9711048768   -0.8055398400
H        3.1915659743    1.2845461035    2.9550104998
H        2.2078635817   -0.0735941988    2.4015109813
H        1.9986674369    1.5177061123    1.6774226639
27   
torsion grid (60,)
C        6.0002271929   -0.0324399177   -0.6766626567
C       -1.1194838990   -1.0033827417    0.9356600922
C        6.1126488699    0.9075155112    0.3525238400
C       -1.5471482465    0.2043923429    0.3703439355
C        4.7950408009   -0.7057340281   -0.8482819543
C        0.1813102362   -1.4542633687    0.7105422328
C        5.0246875123    1.1537571564    1.1919267669
C       -0.6749059207    0.9595408437   -0.4184447575
C        3.6859862333   -0.4433104137   -0.0225457432
C        1.0877553754   -0.6908763355   -0.0391607276
C        3.7932174862    0.5009609687    1.0264418398
C        0.6220666184    0.4945632692   -0.6066923217
C        2.4575014757   -1.2366925130   -0.3383329477
C        2.6849620714    0.8237619090    2.0074852491
O        2.5400769654   -2.3586764039   -0.8290407481
F        1.4688490114    1.2343922908   -1.3687724249
H        6.8414863093   -0.2370583780   -1.3332198921
H       -1.8027400085   -1.5956783000    1.5373857736
H        7.0464461419    1.4420105668    0.5083013710
H       -2.5622424524    0.5557417005    0.5332627553
H        4.6820372088   -1.4479330652   -1.6321795946
H        0.5169838408   -2.4034511672    1.1184725778
H        5.1323445941    1.8693499994    2.0036409037
H       -0.9830069161    1.8887879220   -0.8879893748
H        3.0994895311    1.3369594869    2.8792490769
H        2.1647963727   -0.0686720993    2.3611914297
H        1.9311166218    1.4826603408    1.5661175667
27   
torsion grid (75,)
C        6.0684437869   -0.1442942850   -0.5605885669
C       -1.0254544956   -1.0200739911    1.0527045131
C        6.1686751419    0.7628361916    0.4989751254
C       -1.5665596731    0.1378843403    0.4817608796
C        4.8354653677   -0.7217926303   -0.8404047969
C        0.2780792323   -1.4091507734    0.7385332307
C        5.0385457903    1.0720395425    1.2568219961
C       -0.8055587528    0.9060337409   -0.4042306237
C        3.6849801827   -0.4062084130   -0.0899336511
C        1.0716578522   -0.6309054812   -0.1141294059
C        3.7792233049    0.5118696341    0.9866889417
C        0.4945176012    0.5006746362   -0.6845568112
C        2.4394242530   -1.1092482253   -0.5320126906
C        2.6325018875    0.9170453366    1.8898485148
O        2.4962359776   -2.1190775255   -1.2265694271
F        1.2427984878    1.2529589813   -1.5345972372
H        6.9401893211   -0.3950362173   -1.1587573784
H       -1.6220883545   -1.6240681335    1.7301939352
H        7.1226900050    1.2259509459    0.7385056870
H       -2.5831896466    0.4404632392    0.7166357666
H        4.7284764938   -1.4325308862   -1.6532826367
H        0.6966298729   -2.3197566636    1.1585086016
H        5.1327333647    1.7682864022    2.0865309627
H       -1.2016573886    1.7995019414   -0.8772684880
H        3.0174261051    1.4820562057    2.7426758050
H        2.0815331115    0.0587937842    2.2790567288
H        1.9102012418    1.5540796636    1.3718800869
27   
torsion grid (90,)
C        6.1045122993   -0.4527164592   -0.3048161913
C       -0.8534408182   -1.2076837698    1.1253400015
C        6.1913142003    0.4573419813    0.7534538743
C       -1.5605285769   -0.0752360981    0.7062477163
C        4.8501808810   -0.8266010400   -0.7706920548
C        0.4373142855   -1.4428598697    0.6442242736
C        5.0258383669    0.9751383208    1.3185828558
C       -0.9790599367    0.8224021088   -0.1945665487
C        3.6638230216   -0.3146976762   -0.2044854410
C        1.0419350213   -0.5461988997   -0.2452055586
C        3.7453335263    0.6142119458    0.8663439155
C        0.3077887015    0.5636236151   -0.6504478421
C        2.4053507864   -0.8484153228   -0.8199583791
C        2.5657535803    1.2763696118    1.5474115597
O        2.4438225147   -1.6022445531   -1.7867784733
F        0.8902916661    1.4496714600   -1.5025787139
H        7.0028929206   -0.8637518573   -0.7571510556
H       -1.3073427561   -1.9083341459    1.8202427088
H        7.1607762435    0.7649377077    1.1375958622
H       -2.5649809286    0.1108641074    1.0758378018
H        4.7516232342   -1.5314295401   -1.5894960126
H        0.9882380604   -2.3240721091    0.9622510777
H        5.1074176592    1.6863824278    2.1366201575
H       -1.5022214558    1.7081140637   -0.5420203048
H        2.9211185092    1.9084850355    2.3650715687
H        1.8592690095    0.5560220163    1.9643653711
H        2.0111005666    1.9163250922    0.8563380740
27   
torsion grid (105,)
C        6.0226183634   -0.7023732819   -0.1259443667
C       -0.6549946703   -1.3098708737    1.1744546319
C        6.1136729812    0.1935279908    0.9436978495
C       -1.5083523442   -0.2555657742    0.8312314200
C        4.7879130272   -0.9064209663   -0.7325691972
C        0.6078113834   -1.4065212124    0.5833745460
C        4.9744436284    0.8710882432    1.3815987703
C       -1.1009737141    0.7008975442   -0.1041420963
C        3.6285379086   -0.2429770399   -0.2844467582
C        1.0276960109   -0.4644795341   -0.3636748104
C        3.7147336424    0.6736069124    0.7938798064
C        0.1565024138    0.5737094788   -0.6814103923
C        2.3769751084   -0.6017268932   -1.0259569547
C        2.5571571335    1.4961510735    1.3190766151
O        2.4227817515   -1.0732050288   -2.1558893730
F        0.5689184565    1.5231453079   -1.5609590573
H        6.9023605749   -1.2326217327   -0.4802534495
H       -0.9697058511   -2.0519080355    1.9025570812
H        7.0684295443    0.3707740772    1.4325559428
H       -2.4886425227   -0.1720445602    1.2919860281
H        4.6880245050   -1.5901760900   -1.5694791438
H        1.2796379690   -2.2158057062    0.8577473523
H        5.0629813471    1.5805771223    2.2006478642
H       -1.7353605199    1.5363477025   -0.3841765061
H        2.9175663913    2.2073106233    2.0667150012
H        1.7888597114    0.8776111620    1.7899615960
H        2.0754532569    2.0705982571    0.5238439354
27   
torsion grid (120,)
C        5.9688412268   -0.8538482847   -0.0321395144
C       -0.4743222303   -1.2829485069    1.2018439076
C        6.0698435877    0.0081065821    1.0641665392
C       -1.4430353449   -0.3441560772    0.8293764422
C        4.7617139768   -0.9343702598   -0.7211039485
C        0.7749003683   -1.2770712690    0.5771891100
C        4.9705035124    0.7793811446    1.4484070386
C       -1.1659578292    0.5956379950   -0.1682397231
C        3.6419001253   -0.1840043673   -0.3192602791
C        1.0637985652   -0.3596412153   -0.4420886229
C        3.7389408856    0.7017686228    0.7804791238
C        0.0789329830    0.5654833767   -0.7862527912
C        2.4011432296   -0.3917239913   -1.1330190296
C        2.6159013021    1.6112109317    1.2334660508
O        2.4594618921   -0.6488979826   -2.3287377746
F        0.3581509147    1.5034023359   -1.7235735473
H        6.8206619637   -1.4509123382   -0.3461124824
H       -0.6881744942   -2.0094650386    1.9804444365
H        7.0047244241    0.0899699844    1.6129686044
H       -2.4128677699   -0.3353609244    1.3189745369
H        4.6577486522   -1.5847227230   -1.5843175215
H        1.5404387874   -1.9878346079    0.8775911273
H        5.0710322068    1.4681031044    2.2839214655
H       -1.8913324018    1.3465921738   -0.4661551579
H        3.0021497222    2.3644516852    1.9251447724
H        1.8241221387    1.0596295431    1.7485714236
H        2.1539956753    2.1383372740    0.3946889289
27   
torsion grid (135,)
C        5.8962513058   -0.9484718535   -0.0109660441
C       -0.3719181477   -1.2324927669    1.2631952000
C        6.0289389883   -0.1271816783    1.1128915151
C       -1.4421933657   -0.4446434375    0.8244229519
C        4.7015521266   -0.9308700542   -0.7277224525
C        0.8695536187   -1.1248884970    0.6346983377
C        4.9737729439    0.7036440057    1.4982614058
C       -1.2724944153    0.4428264229   -0.2423605061
C        3.6254482757   -0.1243244441   -0.3213899052
C        1.0578852798   -0.2590349171   -0.4533863711
C        3.7553607676    0.7218498343    0.8033536396
C       -0.0314018202    0.5135159521   -0.8659522132
C        2.3833593934   -0.2092686897   -1.1578410604
C        2.6727009561    1.6807801398    1.2531783305
O        2.4441740524   -0.3074565740   -2.3767928598
F        0.1274955915    1.4015139313   -1.8726904041
H        6.7155413711   -1.5886123449   -0.3267064322
H       -0.5027410732   -1.9197455032    2.0940343304
H        6.9558861037   -0.1214732638    1.6808516899
H       -2.4090014107   -0.5127311082    1.3155013193
H        4.5775183807   -1.5456093409   -1.6143796978
H        1.7109059974   -1.7185706213    0.9819304056
H        5.1005103461    1.3632249861    2.3537418529
H       -2.0802691929    1.0780988702   -0.5927167939
H        3.1009106365    2.4556241137    1.8947653119
H        1.8891945523    1.1712561207    1.8226771251
H        2.1880096889    2.1782677322    0.4092427098
27   
torsion grid (150,)
C        5.8446291323   -1.0342331328   -0.0204821638
C       -0.2954239362   -1.1823151677    1.2879319539
C        6.0227492925   -0.2484691532    1.1223530396
C       -1.4390335004   -0.5688600565    0.7640940511
C        4.6567737226   -0.9273056699   -0.7423532234
C        0.9417883189   -0.9712525779    0.6797980740
C        5.0192731668    0.6370877633    1.5238457851
C       -1.3435356039    0.2468788117   -0.3666099870
C        3.6320094275   -0.0669849606   -0.3183346741
C        1.0651494752   -0.1672767847   -0.4663130644
C        3.8081882429    0.7434547852    0.8243195877
C       -0.1016534076    0.4255085271   -0.9676518127
C        2.3879767027   -0.0407540855   -1.1607750834
C        2.7739752611    1.7471423012    1.2897997272
O        2.4599912439   -0.0022625554   -2.3827264974
F       -0.0340847751    1.2405404833   -2.0402708783
H        6.6251799437   -1.7152176962   -0.3487236068
H       -0.3682630519   -1.8182486791    2.1653918029
H        6.9463841077   -0.3124572986    1.6920736123
H       -2.4062375181   -0.7194861373    1.2357746975
H        4.5022291586   -1.5119067429   -1.6446359763
H        1.8335304385   -1.4409204564    1.0847676620
H        5.1816715673    1.2690734116    2.3941850097
H       -2.2114502919    0.7451083528   -0.7876581800
H        3.2472413807    2.5215530959    1.8996590634
H        1.9957088971    1.2739552936    1.8973821938
H        2.2733760062    2.2406884388    0.4527763885
27   
torsion grid (165,)
C        5.7695834481   -1.1209110476   -0.0700974063
C       -0.2089981690   -1.2130288088    1.3868743708
C        6.0228829573   -0.3601656299    1.0753252355
C       -1.4140266916   -0.8018125750    0.8062694748
C        4.5718771664   -0.9376448084   -0.7614417091
C        0.9994031227   -0.8808832340    0.7771517898
C        5.0829386676    0.5772337461    1.5118661444
C       -1.4047751076   -0.0672924496   -0.3817028937
C        3.6121515341   -0.0248980100   -0.3011663397
C        1.0436847511   -0.1408891567   -0.4195733920
C        3.8636467184    0.7598433928    0.8433464401
C       -0.1868150498    0.2416602300   -0.9799015190
C        2.3497795327    0.1000517787   -1.1131849756
C        2.8885181556    1.8051013772    1.3425269127
O        2.4124731254    0.2978924685   -2.3201928273
F       -0.2218031833    0.9687296514   -2.1125846799
H        6.5011116055   -1.8412858322   -0.4260879974
H       -0.2127865857   -1.7917725674    2.3059004970
H        6.9559275859   -0.4840876612    1.6191640948
H       -2.3620471569   -1.0511545161    1.2751260241
H        4.3644802400   -1.5024001801   -1.6660018872
H        1.9343445182   -1.2111018735    1.2187873735
H        5.3023518061    1.1885945115    2.3845521800
H       -2.3227722911    0.2696647696   -0.8534229320
H        3.4110989344    2.5619667882    1.9338905952
H        2.1136360121    1.3633378702    1.9781943697
H        2.3782568656    2.3156309811    0.5213520294
27   
torsion grid (180,)
C        5.2540108276   -1.4077938731    0.2485998282
C       -0.2097021493   -1.7647177845    1.0789353671
C        5.9299873955   -0.5169319127    1.0860418202
C       -1.4318499039   -1.4473031591    0.4771946359
C        4.0212881121   -1.0344662036   -0.2916595124
C        0.9527695239   -1.1091876927    0.6773873861
C        5.3770905199    0.7373614260    1.3633080616
C       -1.4836087904   -0.4726433309   -0.5213543419
C        3.4718675286    0.2256864127   -0.0208897255
C        0.9407857873   -0.1318371730   -0.3390107602
C        4.1533241446    1.1380042494    0.8099206864
C       -0.3118952489    0.1705404586   -0.9086327260
C        2.1820501269    0.6313506198   -0.6885078547
C        3.5925873763    2.5100920277    1.1059583941
O        2.1676850241    1.5930094424   -1.4468646934
F       -0.4188065930    1.0962782506   -1.8783050325
H        5.6771122917   -2.3826967947    0.0217478816
H       -0.1648112369   -2.5133201675    1.8644092835
H        6.8850156276   -0.7958483404    1.5239183565
H       -2.3443230595   -1.9511009093    0.7845158199
H        3.4837313747   -1.7235183276   -0.9389146008
H        1.8921237757   -1.3425495192    1.1653808726
H        5.9080074750    1.4229357233    2.0199198076
H       -2.4158287915   -0.1989326364   -1.0059087691
H        4.1610864810    2.9970208573    1.9026260172
H        2.5442570208    2.4602929014    1.4183524772
H        3.6271813152    3.1438868006    0.2153382359
