19   
torsion grid (-165,)
C        2.0915196962   -0.7489758339   -0.1002214435
C        2.7647958833   -1.9053421832    1.9519512124
C        1.0083891180   -0.1826234635    0.5743586099
C        1.6915681317   -1.3300179202    2.6272946832
C        2.9461332240   -1.5976694351    0.6014874405
C        0.8279011067   -0.4838622000    1.9249542897
N       -1.5006111272   -1.2015816686    2.9568023997
N        4.0768771250   -2.2199645099   -0.1207566573
O        4.6433936990   -3.1705484419    0.4243314307
O        4.3672282203   -1.7606706690   -1.2282247093
O       -1.2033627415    1.2186302819    1.9055362484
O       -0.1350231267    0.6312252260    4.1537774801
S       -0.5451391906    0.2699654534    2.8045409443
Cl      -2.7534206159   -1.0558350779    4.1894133795
H        2.2806050061   -0.5373736526   -1.1460596336
H        3.4531019151   -2.5785394172    2.4495023060
H        0.3218270532    0.4894924920    0.0699270483
H        1.5230119923   -1.5316528741    3.6799702716
H       -2.0055614888   -1.3115991665    2.0701365182
19   
torsion grid (-150,)
C        2.0885806089   -0.7500811634   -0.1135308959
C        2.7586033722   -1.8793967410    1.9547737960
C        0.9944133732   -0.1900676798    0.5487061307
C        1.6814626567   -1.3007823769    2.6209639405
C        2.9481905909   -1.5787670875    0.6043085107
C        0.8128402682   -0.4722144222    1.9033870163
N       -1.5074599821   -1.1941829192    2.9529537150
N        4.0762623957   -2.2102270777   -0.1085697643
O        4.4631391396   -3.3057924366    0.3065421610
O        4.5319298275   -1.6134243001   -1.0873023626
O       -1.2367868283    1.2066721523    1.8493211130
O       -0.1618110614    0.6777010400    4.1088074504
S       -0.5681883401    0.2838818509    2.7675556536
Cl      -2.7654094749   -1.0317882547    4.1784690052
H        2.2822843606   -0.5458069805   -1.1604586990
H        3.4444711089   -2.5488481041    2.4614397607
H        0.3006487356    0.4649428394    0.0317674711
H        1.5111632066   -1.4894287555    3.6757818128
H       -2.0085832177   -1.3318143551    2.0680074531
19   
torsion grid (-135,)
C        2.0866759255   -0.7591664164   -0.1194015085
C        2.7700382673   -1.8662627637    1.9578596929
C        0.9896590970   -0.2025826997    0.5414640549
C        1.6927114032   -1.2861982688    2.6223577668
C        2.9545738492   -1.5713227548    0.6060140330
C        0.8150446247   -0.4713074971    1.8997460654
N       -1.4873620645   -1.2075268581    2.9751177892
N        4.0701089644   -2.2173704726   -0.1100094968
O        4.2752499977   -3.4092128251    0.1332222414
O        4.6842452272   -1.5328237369   -0.9317654485
O       -1.2562081452    1.1792763306    1.8308965066
O       -0.1620639129    0.7015632174    4.0923703331
S       -0.5699307619    0.2803452379    2.7598097534
Cl      -2.7528971168   -1.0354813825    4.1917933222
H        2.2750954935   -0.5614249473   -1.1690583102
H        3.4574249596   -2.5318371576    2.4686698084
H        0.2872376653    0.4393303978    0.0198006418
H        1.5263171168   -1.4668256706    3.6792038801
H       -1.9830156398   -1.3725324830    2.0917246412
19   
torsion grid (-120,)
C        2.0810498404   -0.7767594314   -0.1287015863
C        2.7947176161   -1.8546904095    1.9537487480
C        0.9899926109   -0.2172141744    0.5396770287
C        1.7220891205   -1.2724565844    2.6245168098
C        2.9614161264   -1.5736799800    0.5974141095
C        0.8324594710   -0.4696224540    1.9032169335
N       -1.4512621931   -1.2003123312    3.0187189750
N        4.0728838426   -2.2203159894   -0.1247666140
O        4.1146321357   -3.4521462052   -0.0940596723
O        4.8444612003   -1.4835526924   -0.7422171138
O       -1.2449065710    1.1728297509    1.8395752669
O       -0.1204791726    0.7289155249    4.0925350130
S       -0.5430964978    0.2882788002    2.7708165441
Cl      -2.7174396719   -1.0080035965    4.2322064906
H        2.2534106898   -0.5889133063   -1.1833962768
H        3.4909199773   -2.5098583378    2.4670208605
H        0.2788444331    0.4158085607    0.0189319127
H        1.5690194581   -1.4421900584    3.6851948011
H       -1.9468345238   -1.3870433741    2.1395653250
19   
torsion grid (-105,)
C        2.0427813161   -0.8117172536   -0.1261495393
C        2.7939373072   -1.8463805652    1.9642536035
C        0.9550066840   -0.2499028901    0.5458615916
C        1.7183196431   -1.2704929348    2.6365135112
C        2.9373644189   -1.5906156563    0.6011045385
C        0.8127037299   -0.4874873867    1.9137949848
N       -1.4636553699   -1.2322508059    3.0321366866
N        4.0598073710   -2.2234553808   -0.1196914077
O        3.9724085370   -3.4347015874   -0.3274731676
O        4.9779202221   -1.4871977602   -0.4834717519
O       -1.2726054631    1.1442843234    1.8561441176
O       -0.1421122281    0.7027541783    4.1064776207
S       -0.5641488077    0.2619767402    2.7845586889
Cl      -2.7419959498   -1.0410841097    4.2335160084
H        2.1973649228   -0.6390112325   -1.1864788028
H        3.5076138143   -2.4773722335    2.4844125923
H        0.2351948540    0.3727570365    0.0244153210
H        1.5780190373   -1.4272829935    3.7009700077
H       -1.9507921132   -1.4264180374    2.1498415284
19   
torsion grid (-90,)
C        2.0259752829   -0.8352169288   -0.1362928927
C        2.8029246148   -1.8314718016    1.9630095026
C        0.9440899116   -0.2643418660    0.5377782509
C        1.7242361565   -1.2595063745    2.6339754291
C        2.9254868671   -1.6061388687    0.5926982304
C        0.8101391784   -0.4889233514    1.9087130421
N       -1.4506624395   -1.2290869400    3.0595902468
N        4.0680148567   -2.2153199532   -0.1189407910
O        3.8935995455   -3.3404778543   -0.5889595246
O        5.1024468860   -1.5507064869   -0.1846364219
O       -1.2851843706    1.1299153841    1.8447162870
O       -0.1328088270    0.7304231666    4.0914780662
S       -0.5627086413    0.2663993017    2.7800589840
Cl      -2.7240342359   -1.0241670604    4.2641190356
H        2.1666012851   -0.6805181414   -1.2014563806
H        3.5334812082   -2.4366818504    2.4905530059
H        0.2219018325    0.3546781733    0.0152893902
H        1.5930968413   -1.4032655872    3.7014494475
H       -1.9410672437   -1.4423959401    2.1835321406
19   
torsion grid (-75,)
C        2.0073138803   -0.8710221172   -0.1458092559
C        2.8100133193   -1.8149516352    1.9680138204
C        0.9302878587   -0.2884964932    0.5260422275
C        1.7265028342   -1.2461780939    2.6335183153
C        2.9137119174   -1.6274990010    0.5900915881
C        0.8034444834   -0.4933761553    1.9007138618
N       -1.4595059591   -1.2231043429    3.0553825048
N        4.0717560443   -2.2168780785   -0.1108459884
O        3.8519125577   -3.1997640670   -0.8208679341
O        5.1693917932   -1.6964126591    0.0917893962
O       -1.2899024193    1.1274455606    1.8253362406
O       -0.1388437068    0.7413054525    4.0752669552
S       -0.5691800764    0.2692617906    2.7668950288
Cl      -2.7279065008   -1.0113202041    4.2638347034
H        2.1371291254   -0.7415447571   -1.2156080662
H        3.5587026355   -2.3900827539    2.5034336502
H        0.2059844731    0.3240455969   -0.0010814371
H        1.6026135378   -1.3715053765    3.7041755092
H       -1.9535311662   -1.4386610496    2.1819209230
19   
torsion grid (-60,)
C        1.9782624960   -0.8920694052   -0.1501529911
C        2.8161804299   -1.7989545499    1.9672125403
C        0.9047470359   -0.3095854962    0.5267698409
C        1.7309187916   -1.2387486840    2.6365678947
C        2.8984253372   -1.6345185155    0.5842819314
C        0.7931137695   -0.5035369240    1.9044324641
N       -1.4616762683   -1.2439294876    3.0703681948
N        4.0605977819   -2.2056521237   -0.1213281951
O        3.8243840289   -2.9959484108   -1.0380985924
O        5.1773491844   -1.8825155951    0.2871847052
O       -1.3104951441    1.1049025109    1.8374333798
O       -0.1446988304    0.7288439642    4.0818774316
S       -0.5802582743    0.2526677405    2.7768187472
Cl      -2.7127462722   -1.0436169582    4.2983524883
H        2.0958957853   -0.7790534199   -1.2229540619
H        3.5835037373   -2.3507275378    2.5001155662
H        0.1715038152    0.2939181518    0.0016253255
H        1.6184893621   -1.3528801326    3.7097295786
H       -1.9676965945   -1.4562204407    2.2030065605
19   
torsion grid (-45,)
C        1.9756701362   -0.9182463942   -0.1562488639
C        2.8126209723   -1.7932196025    1.9750076169
C        0.8988423761   -0.3302822943    0.5102199189
C        1.7230799996   -1.2297343354    2.6340676594
C        2.8989809521   -1.6465434803    0.5896375276
C        0.7849181639   -0.5070701132    1.8899189589
N       -1.4684997545   -1.2322914573    3.0754238057
N        4.0649216360   -2.2197908498   -0.1071037212
O        3.8518426110   -2.7896133685   -1.1806380676
O        5.1590883478   -2.1213583216    0.4527029334
O       -1.3273192540    1.0893324875    1.7953494508
O       -0.1518038600    0.7637853979    4.0438938428
S       -0.5910341586    0.2601096284    2.7505408494
Cl      -2.6736882843   -1.0321405174    4.3474913814
H        2.0975878136   -0.8214003499   -1.2297181320
H        3.5819401086   -2.3349395039    2.5144007685
H        0.1647786555    0.2639983136   -0.0241260357
H        1.6074373373   -1.3316757901    3.7080975855
H       -2.0048138514   -1.4428942504    2.2261750871
19   
torsion grid (-30,)
C        1.9745341356   -0.9318084230   -0.1648906717
C        2.8234897430   -1.7737290692    1.9735012769
C        0.8950157845   -0.3434918381    0.4966518046
C        1.7346574762   -1.2055802374    2.6296901573
C        2.9089062263   -1.6421702593    0.5859567879
C        0.7885387256   -0.5002993808    1.8793323507
N       -1.4537974917   -1.2281109309    3.0825080122
N        4.0699844278   -2.2308088061   -0.1101084212
O        3.9091385803   -2.5718131197   -1.2851716121
O        5.1098268761   -2.3669900054    0.5390932616
O       -1.3374983534    1.0782176070    1.7717986677
O       -0.1508201037    0.7920341898    4.0196686975
S       -0.5911066982    0.2676694328    2.7349849233
Cl      -2.6582721933   -1.0214477880    4.3540699802
H        2.0939659554   -0.8484832956   -1.2392245096
H        3.5951851919   -2.3089971574    2.5149628658
H        0.1534543055    0.2359306220   -0.0436390273
H        1.6237454253   -1.2937090185    3.7054216845
H       -1.9895457395   -1.4561106153    2.2373924004
19   
torsion grid (-15,)
C        1.9616548143   -0.9417257331   -0.1624935095
C        2.8222000217   -1.7650740372    1.9782419427
C        0.8775076178   -0.3611621764    0.4981160538
C        1.7342413683   -1.1956359869    2.6347390107
C        2.9075841670   -1.6359443253    0.5899210396
C        0.7790794501   -0.5049029209    1.8827139624
N       -1.4483217088   -1.2390235122    3.1117380097
N        4.0655062604   -2.2350012126   -0.1079047050
O        3.9968503539   -2.3380945273   -1.3354411346
O        5.0169198100   -2.6052095306    0.5843791201
O       -1.3646716719    1.0493975101    1.7692560083
O       -0.1582470952    0.8063462796    4.0120459844
S       -0.6029084930    0.2601567992    2.7380225434
Cl      -2.6362205269   -1.0307990743    4.3983058665
H        2.0791754418   -0.8624473614   -1.2368966802
H        3.5947630408   -2.2990948971    2.5189042571
H        0.1262652439    0.2030568001   -0.0448439003
H        1.6287568023   -1.2758167327    3.7116091949
H       -1.9938372926   -1.4792965624    2.2763624866
19   
torsion grid (0,)
C        1.9530363008   -0.9429562818   -0.1515825051
C        2.8115435199   -1.7425934727    1.9989161079
C        0.8597144098   -0.3694964741    0.5001299488
C        1.7212803843   -1.1690071335    2.6479939896
C        2.9045737043   -1.6191834521    0.6104183008
C        0.7613896539   -0.4956421609    1.8864694802
N       -1.4508281249   -1.2318068897    3.1410468494
N        4.0629847786   -2.2296721441   -0.0796632793
O        4.1251657309   -2.1061003593   -1.3054854287
O        4.8911145269   -2.8227240765    0.6160884981
O       -1.4040621789    1.0265134374    1.7479019562
O       -0.1856214059    0.8509469701    3.9899948579
S       -0.6276993023    0.2696192921    2.7306667050
Cl      -2.6389242838   -1.0101711011    4.4253561778
H        2.0751741583   -0.8693888488   -1.2257191028
H        3.5809902249   -2.2749278713    2.5453416066
H        0.1012661398    0.1763037541   -0.0515781619
H        1.6152904912   -1.2370367375    3.7256325762
H       -1.9949226668   -1.4983908637    2.3127732813
19   
torsion grid (15,)
C        1.9471869347   -0.9554956914   -0.1510149255
C        2.8247116767   -1.7283885836    2.0014185287
C        0.8518830475   -0.3868330815    0.5015773014
C        1.7387787665   -1.1492359563    2.6528813063
C        2.9107623948   -1.6128421787    0.6119106970
C        0.7670224490   -0.4939376388    1.8904116123
N       -1.4319900777   -1.2380144824    3.1634430207
N        4.0570786793   -2.2382950497   -0.0821972179
O        4.2571475597   -1.9121944672   -1.2550524539
O        4.7446096517   -3.0350613643    0.5614046904
O       -1.4116128762    1.0083961719    1.7491069827
O       -0.1810440654    0.8637373155    3.9867427411
S       -0.6239852509    0.2672247388    2.7349108438
Cl      -2.6149489313   -1.0155350635    4.4521091868
H        2.0633374589   -0.8891499028   -1.2264543998
H        3.5959810215   -2.2589457511    2.5473130139
H        0.0818088600    0.1413100325   -0.0511988212
H        1.6425541085   -1.2033645883    3.7322494028
H       -1.9780120470   -1.5172504643    2.3406001020
19   
torsion grid (30,)
C        1.9424727648   -0.9629405639   -0.1552665310
C        2.8269015866   -1.7115172500    2.0036986898
C        0.8407222027   -0.4013529527    0.4927558697
C        1.7402549751   -1.1296282102    2.6514269950
C        2.9131951653   -1.6004016458    0.6144290778
C        0.7611923396   -0.4916612190    1.8831948681
N       -1.4255820803   -1.2379030694    3.1770863999
N        4.0545936049   -2.2331397683   -0.0753564435
O        4.4174687756   -1.7315820993   -1.1425727633
O        4.5820500639   -3.2018847605    0.4770213568
O       -1.4321754908    0.9869076824    1.7282595332
O       -0.1916975774    0.8868809497    3.9631078347
S       -0.6335854939    0.2679499814    2.7218153800
Cl      -2.6054961171   -1.0059972317    4.4669918937
H        2.0584338383   -0.9021873793   -1.2315193401
H        3.5981231732   -2.2390238325    2.5533897675
H        0.0624344388    0.1098709211   -0.0644240128
H        1.6467159074   -1.1720519768    3.7315645363
H       -1.9721205160   -1.5354898745    2.3610915687
19   
torsion grid (45,)
C        1.9564709202   -0.9648207517   -0.1677118900
C        2.8342987749   -1.6877170392    2.0034197499
C        0.8477009441   -0.4041657678    0.4694742632
C        1.7435729374   -1.1013810324    2.6401317974
C        2.9272673050   -1.5852863973    0.6144491971
C        0.7638517726   -0.4777656816    1.8606517655
N       -1.4069909842   -1.2216537677    3.1780850102
N        4.0658852094   -2.2316027254   -0.0636556581
O        4.6063192579   -1.6023702803   -0.9767143587
O        4.4166250766   -3.3364591714    0.3575240725
O       -1.4472742554    0.9697371995    1.6764771459
O       -0.2022937901    0.9377347579    3.9101088532
S       -0.6376234335    0.2838043847    2.6844097533
Cl      -2.6154212643   -0.9666972141    4.4374607149
H        2.0759896521   -0.9128418968   -1.2445719564
H        3.6016611991   -2.2111156720    2.5632707443
H        0.0668941961    0.0932039134   -0.0966819094
H        1.6452194101   -1.1328985995    3.7202259038
H       -1.9328706485   -1.5586476006    2.3637508747
19   
torsion grid (60,)
C        1.9506999358   -0.9839861638   -0.1717305411
C        2.8483326498   -1.6678544150    2.0049159509
C        0.8438996579   -0.4187450815    0.4652712520
C        1.7581790857   -1.0783296338    2.6399970795
C        2.9293607618   -1.5849359762    0.6145601973
C        0.7702079741   -0.4711125694    1.8579525860
N       -1.3876490386   -1.2051656271    3.1990363107
N        4.0687158418   -2.2349004996   -0.0595267158
O        4.7736108436   -1.5229465913   -0.7778732065
O        4.2523090332   -3.4297965010    0.1815039521
O       -1.4462159010    0.9669034767    1.6681287404
O       -0.1882143001    0.9684997081    3.8941028936
S       -0.6278294005    0.2965954340    2.6796236523
Cl      -2.6098979348   -0.9323528511    4.4417806531
H        2.0594818632   -0.9470652846   -1.2507793162
H        3.6219280830   -2.1775067331    2.5697581288
H        0.0570547227    0.0667752688   -0.1028757858
H        1.6670825253   -1.0946902639    3.7210839224
H       -1.9037831584   -1.5642130314    2.3878308932
19   
torsion grid (75,)
C        1.9342916692   -0.9971773293   -0.1695015409
C        2.8594257176   -1.6350731885    2.0079130677
C        0.8293388971   -0.4293632921    0.4689500603
C        1.7658030794   -1.0517918095    2.6434529559
C        2.9233491340   -1.5803441467    0.6159613845
C        0.7650877030   -0.4646545754    1.8625849186
N       -1.3781195519   -1.2072666723    3.2196928543
N        4.0721780896   -2.2187212186   -0.0567081328
O        4.9225012973   -1.4709313396   -0.5416633218
O        4.1020897732   -3.4503295346   -0.0544324115
O       -1.4638539543    0.9537951910    1.6737575667
O       -0.1956439376    0.9814002547    3.8934453433
S       -0.6342806528    0.2973580101    2.6853246584
Cl      -2.6121890128   -0.9321540286    4.4506526530
H        2.0287411493   -0.9771298422   -1.2506003802
H        3.6469793692   -2.1188758931    2.5768463782
H        0.0359820924    0.0447759222   -0.0997959427
H        1.6842579613   -1.0543782795    3.7254222494
H       -1.8847650163   -1.5831821083    2.4101060787
19   
torsion grid (90,)
C        1.9199525861   -1.0370426616   -0.1763288477
C        2.8705058894   -1.6119932197    2.0058147795
C        0.8201734155   -0.4549683993    0.4580898675
C        1.7737549512   -1.0295169944    2.6375443113
C        2.9157172768   -1.6037245400    0.6125368353
C        0.7639599152   -0.4644082275    1.8525978047
N       -1.3795927759   -1.1925706380    3.2165071122
N        4.0783122271   -2.2229754806   -0.0569119295
O        5.0443335443   -1.4939875484   -0.2837905890
O        3.9881374723   -3.4201531724   -0.3326576649
O       -1.4628326581    0.9558492717    1.6530900850
O       -0.1937094351    0.9996117932    3.8720529047
S       -0.6334831616    0.3065145168    2.6694760708
Cl      -2.6163184366   -0.9044509243    4.4420149675
H        2.0011244014   -1.0457089545   -1.2587215253
H        3.6741088296   -2.0610337600    2.5810062244
H        0.0245087949    0.0103628614   -0.1147369861
H        1.7013156976   -1.0084961811    3.7199840064
H       -1.8850165183   -1.5755378789    2.4094443267
19   
torsion grid (105,)
C        1.9015181741   -1.0810405558   -0.1692972785
C        2.8788637089   -1.5972190365    2.0174246894
C        0.8069008202   -0.4876315345    0.4630592860
C        1.7782925347   -1.0192779604    2.6463925406
C        2.9045802079   -1.6296835927    0.6237032259
C        0.7595109319   -0.4753830930    1.8579667309
N       -1.3845762282   -1.1963926362    3.2254362739
N        4.0786904777   -2.2239401442   -0.0457062899
O        5.1242460555   -1.5737204038   -0.0164805786
O        3.9116794723   -3.3090030659   -0.6052933783
O       -1.4681637851    0.9420597868    1.6490198338
O       -0.1999426558    1.0005453623    3.8683317306
S       -0.6389204098    0.2998151386    2.6699569923
Cl      -2.6175885148   -0.9025930201    4.4532452245
H        1.9720435895   -1.1178472544   -1.2517596011
H        3.6995316988   -2.0131143717    2.5932720441
H        0.0078096026   -0.0308570058   -0.1118436726
H        1.7132441087   -0.9780231092    3.7287273950
H       -1.8924849656   -1.5822417921    2.4213162111
19   
torsion grid (120,)
C        1.8971827363   -1.1028355130   -0.1789875187
C        2.8907172890   -1.5817222142    2.0093506517
C        0.8047782164   -0.5033023821    0.4512719695
C        1.7883826317   -1.0066945391    2.6368590057
C        2.9060672912   -1.6398445519    0.6156173240
C        0.7634056339   -0.4773936065    1.8461581626
N       -1.3713669702   -1.1924470327    3.2325629785
N        4.0874720624   -2.2166609518   -0.0525055661
O        5.1801910353   -1.7116088929    0.2118305848
O        3.8853120377   -3.1277975697   -0.8582729258
O       -1.4729323386    0.9264912080    1.6328074898
O       -0.1919531806    1.0175828894    3.8439734125
S       -0.6352822001    0.3007051300    2.6568763931
Cl      -2.5857295914   -0.8932427498    4.4771521861
H        1.9632007896   -1.1581096390   -1.2606166518
H        3.7226439950   -1.9767634904    2.5831003903
H        0.0026463147   -0.0534122742   -0.1248214897
H        1.7276636902   -0.9522946826    3.7188299185
H       -1.8908104743   -1.5834823687    2.4383934052
19   
torsion grid (135,)
C        1.8993463356   -1.1197294901   -0.1952474939
C        2.8951765225   -1.5600133223    1.9999004040
C        0.8035174622   -0.5164250508    0.4251714042
C        1.7891887380   -0.9830211298    2.6185453096
C        2.9135512539   -1.6374156179    0.6063573208
C        0.7622945628   -0.4699560420    1.8194045450
N       -1.3693768405   -1.1633127528    3.2244126070
N        4.1003151722   -2.2132835417   -0.0525753487
O        5.2022626358   -1.9009725289    0.4046901453
O        3.9045243297   -2.9276428039   -1.0390454915
O       -1.4793659163    0.9234480475    1.5841168892
O       -0.1920751242    1.0605012567    3.7895885635
S       -0.6379301235    0.3197967061    2.6182983002
Cl      -2.5631886583   -0.8465619166    4.4839403179
H        1.9685617728   -1.1923591523   -1.2751762325
H        3.7303321990   -1.9418055993    2.5770823859
H       -0.0005393797   -0.0787123531   -0.1575148939
H        1.7269488406   -0.9140710061    3.6995960308
H       -1.9012626609   -1.5638518045    2.4433810063
19   
torsion grid (150,)
C        1.8936435833   -1.1293713265   -0.2100015102
C        2.9009315575   -1.5465495195    1.9841712411
C        0.7964619795   -0.5284861796    0.4100438576
C        1.7962522642   -0.9672097434    2.6028722236
C        2.9170634031   -1.6323401364    0.5904458458
C        0.7625593419   -0.4682137260    1.8039287363
N       -1.3536837305   -1.1634514289    3.2319178903
N        4.0976616236   -2.2264121796   -0.0673557921
O        5.1754238154   -2.1454695721    0.5272765757
O        3.9288836320   -2.7352681866   -1.1786583362
O       -1.4942527879    0.9011591086    1.5671370954
O       -0.1922205420    1.0782329637    3.7614104168
S       -0.6400723228    0.3188168180    2.6029949504
Cl      -2.5267558022   -0.8455933001    4.5100678289
H        1.9603189858   -1.2107266393   -1.2889891124
H        3.7382735720   -1.9252356532    2.5592705350
H       -0.0144856388   -0.1036285351   -0.1725841834
H        1.7385840028   -0.8894538569    3.6835646390
H       -1.8964272194   -1.5723718275    2.4628304384
19   
torsion grid (165,)
C        2.0976201622   -0.7404069573   -0.0958394117
C        2.7429166917   -1.9425113154    1.9386293930
C        1.0255469693   -0.1622573536    0.5862984459
C        1.6668955935   -1.3746126733    2.6157229747
C        2.9305689951   -1.6210636029    0.5922678241
C        0.8257073126   -0.4955879414    1.9265911460
N       -1.5274333896   -1.1892718001    2.9195329885
N        4.0781499814   -2.2171800217   -0.1251299365
O        4.9539622160   -2.7573366067    0.5550519921
O        4.0910885547   -2.1218032644   -1.3550747363
O       -1.1681851043    1.2505601046    1.9348905814
O       -0.1324373658    0.5804757820    4.1755847036
S       -0.5387719663    0.2642848313    2.8139318924
Cl      -2.7859863508   -1.0490127083    4.1469971695
H        2.2916805370   -0.5177958580   -1.1384858959
H        3.4302190701   -2.6193908077    2.4324794054
H        0.3619906827    0.5424800592    0.0957686131
H        1.4844517221   -1.5995779339    3.6613420537
H       -2.0279105422   -1.2642246296    2.0267014411
19   
torsion grid (180,)
C        2.0944381508   -0.7433699157   -0.0988863929
C        2.7494978253   -1.9219006038    1.9456768481
C        1.0152248704   -0.1703467269    0.5762942396
C        1.6735233687   -1.3492002025    2.6190133351
C        2.9380713203   -1.6070758934    0.5977269697
C        0.8222656182   -0.4865882193    1.9217009664
N       -1.5190702148   -1.1889469700    2.9373641120
N        4.0786643734   -2.2172808405   -0.1211907096
O        4.8111345033   -2.9781234258    0.5162332929
O        4.2212103257   -1.9259829044   -1.3114160818
O       -1.1902185193    1.2384252879    1.9118948841
O       -0.1370287031    0.6155277767    4.1577583744
S       -0.5464304782    0.2729545161    2.8034041870
Cl      -2.7796471994   -1.0373355083    4.1615720329
H        2.2879254267   -0.5277249846   -1.1430361161
H        3.4359562877   -2.5968964900    2.4428500087
H        0.3412619329    0.5178222110    0.0765085787
H        1.4957588579   -1.5623545981    3.6678910027
H       -2.0185559221   -1.2865505579    2.0461443961
