40
-1 1 C15ClH18O5S
C                    -3.807299175830    -2.000981760827    -7.089593115909
C                    -3.122914421565    -0.742002690819    -6.568230032271
S                    -1.678405948498    -0.275242905833    -7.572062992214
O                    -1.082278697663     0.925511372489    -6.949286313549
O                    -2.124287327100    -0.196074576632    -8.979871925033
C                    -0.593703698587    -1.686507815638    -7.429472530893
C                    -0.312644479028    -2.439278754684    -8.576786430400
C                     0.480363041909    -3.575222435136    -8.467389292257
C                     0.986948804313    -4.008117117058    -7.227824707504
C                     0.675474484267    -3.243803796444    -6.096208119687
C                    -0.095916369869    -2.076893163050    -6.174160939418
O                    -0.442246343923    -1.357662332884    -5.054114282135
C                     0.571514155120    -0.431627778762    -4.584132638745
C                     0.079938403753     0.199204278826    -3.287201487197
C                    -1.182599647586     1.092610628696    -3.490930781518
C                    -2.252148257181     0.560558636370    -2.510374998838
C                    -1.857655626764    -0.907147499792    -2.271720109156
C                    -0.321675507266    -0.857579983770    -2.221834160748
Cl                    1.232924828954    -3.768874914758    -4.509339133963
C                     1.832820334831    -5.295159544654    -7.171183298700
O                     1.154811726737    -6.345173794480    -7.069898367819
O                     3.066720141045    -5.096929258819    -7.269511944051
H                    -4.691851232068    -2.216548664683    -6.480842078125
H                    -4.120853035311    -1.871324051861    -8.128561791608
H                    -3.139008314532    -2.864483962558    -7.033577062274
H                    -2.749645173446    -0.852841212432    -5.549275399608
H                    -3.769123273498     0.139897145115    -6.622828965212
H                    -0.727907875892    -2.121548819160    -9.528022049035
H                     0.707820187264    -4.165948908651    -9.350573700577
H                     1.501938160120    -0.984464777693    -4.417792069196
H                     0.726966157420     0.326748475179    -5.358591630598
H                     0.918174669136     0.802639519858    -2.918879749659
H                    -0.960192620272     2.150444471955    -3.316074406540
H                    -1.523751220459     1.015195484761    -4.525139291244
H                    -2.204283506421     1.109395896981    -1.560369775427
H                    -3.271038234973     0.674382024375    -2.897687615275
H                    -2.302287744975    -1.328694881324    -1.362998857507
H                    -2.170959783395    -1.526294805974    -3.118363005418
H                     0.138456036817    -1.830182809777    -2.413110735237
H                     0.001659309229    -0.522117240540    -1.228088990640
