21   
torsion grid (-165,)
C        0.9086403761   -5.0593147889    1.0413041719
C        1.1717040615   -3.8222225830    1.9199657506
C        0.5464497874   -4.0024473689    3.3161095676
C        0.6287901060   -2.5793304140    1.2579410545
C        1.2937390772   -1.4833637187    0.8549658297
C        0.5653268953   -0.3265734550    0.2096813964
C        2.7858059936   -1.2822591170    0.9930092853
H        1.3852265149   -4.9546557152    0.0612122164
H        1.2943755913   -5.9686777459    1.5168186191
H       -0.1667893374   -5.1988799526    0.8771804356
H        2.2542940871   -3.7256178676    2.0507359482
H        0.7613108858   -3.1419094693    3.9579166881
H        0.9338999413   -4.9031608329    3.8063757078
H       -0.5433430362   -4.1035589798    3.2451568069
H       -0.4527062422   -2.5961931173    1.1001854708
H        0.7437947503    0.6070793069    0.7597921957
H       -0.5143970879   -0.4959002898    0.1691926290
H        0.9247661340   -0.1597791381   -0.8142837024
H        3.3266917024   -2.2046042784    1.2128037525
H        3.0098281936   -0.5578366429    1.7871605910
H        3.2015861231   -0.8682251723    0.0661722749
21   
torsion grid (-150,)
C        0.8419073352   -4.9218909454    1.0104382597
C        1.1178574092   -3.6882247858    1.8898658561
C        0.4494291319   -3.8414720167    3.2691944646
C        0.6338422786   -2.4320864230    1.2076254345
C        1.3580261359   -1.3699583378    0.8178316793
C        0.7036045817   -0.1818428721    0.1519671057
C        2.8574109111   -1.2513856317    1.0019773379
H        1.3481739667   -4.8373664443    0.0433183876
H        1.1863525190   -5.8400068224    1.5006791727
H       -0.2323436663   -5.0293917106    0.8170843935
H        2.1988958448   -3.6212720126    2.0506401809
H        0.6705487019   -2.9830704123    3.9117816810
H        0.7976224390   -4.7493267649    3.7754759828
H       -0.6403848064   -3.9124722653    3.1684810066
H       -0.4432498359   -2.4059286004    1.0242573145
H        0.9208529497    0.7450868993    0.6996619211
H       -0.3826719761   -0.2943668723    0.0920241084
H        1.0911700178   -0.0417449063   -0.8657110967
H        3.3657614857   -2.2181920301    0.9772940526
H        3.1033291959   -0.7629440292    1.9537898767
H        3.2927551666   -0.6340784545    0.2082017102
21   
torsion grid (-135,)
C        0.8576127699   -4.9120645216    1.0238190801
C        1.1214649590   -3.6669795960    1.8909025121
C        0.4572577883   -3.8139064000    3.2728218791
C        0.6265086439   -2.4217249486    1.1968716411
C        1.3567225920   -1.3669625387    0.7999545868
C        0.7154904706   -0.1791455935    0.1224282662
C        2.8595875827   -1.2728027679    0.9976640515
H        1.3595296598   -4.8305199175    0.0541378676
H        1.2147496515   -5.8214805822    1.5211740590
H       -0.2158916370   -5.0340764401    0.8351482161
H        2.2024640140   -3.5857879654    2.0474044217
H        0.6695069563   -2.9465594232    3.9064028162
H        0.8163252874   -4.7125428908    3.7879161956
H       -0.6318281104   -3.8980266611    3.1745209081
H       -0.4502527700   -2.3988674610    1.0123754001
H        0.9210471911    0.7470025423    0.6758359170
H       -0.3692656162   -0.2927512212    0.0401435753
H        1.1234079571   -0.0371066147   -0.8871114443
H        3.3731333885   -2.1996285399    0.7250634087
H        3.1154605956   -1.0463947245    2.0400727301
H        3.2826463964   -0.4729179823    0.3817946076
21   
torsion grid (-120,)
C        0.8191584792   -5.0077657103    1.0577422260
C        1.0716675355   -3.7549370998    1.9172072961
C        0.4327795203   -3.9107901842    3.3098569891
C        0.5428870387   -2.5221918726    1.2259661294
C        1.2527371517   -1.4551370015    0.8256922927
C        0.5920383727   -0.2824814288    0.1412178129
C        2.7553857624   -1.3412246524    1.0252109331
H        1.3014507749   -4.9179374834    0.0788790461
H        1.2054332125   -5.9076348937    1.5506092141
H       -0.2546350799   -5.1539768907    0.8891800746
H        2.1538010254   -3.6524837515    2.0529871845
H        0.6388495821   -3.0379232664    3.9379407932
H        0.8163260086   -4.8013193444    3.8214508030
H       -0.6560049737   -4.0149060731    3.2289897751
H       -0.5343802524   -2.5233596960    1.0435767991
H        0.7549479178    0.6445838031    0.7069332067
H       -0.4861687054   -0.4294129574    0.0302357552
H        1.0199741876   -0.1189228053   -0.8568485464
H        3.2959720537   -2.1492920396    0.5198577784
H        3.0296722275   -1.3803189661    2.0853494666
H        3.1333546529   -0.3956819604    0.6250832493
21   
torsion grid (-105,)
C        0.7378074202   -5.1023469593    1.0991756571
C        1.0085748578   -3.8309843779    1.9254754615
C        0.3773563718   -3.9456855279    3.3255297667
C        0.4860748238   -2.6120080828    1.2054548054
C        1.1933155098   -1.5516219947    0.7828468731
C        0.5291780044   -0.4030556412    0.0611364863
C        2.6930748264   -1.4180801477    0.9817632712
H        1.2130816441   -5.0413252490    0.1147147277
H        1.1202795636   -5.9929177968    1.6114238664
H       -0.3385491421   -5.2433983107    0.9429535373
H        2.0929009137   -3.7383266009    2.0492130421
H        0.5992804595   -3.0611088838    3.9314345658
H        0.7520988227   -4.8291898911    3.8555602967
H       -0.7132888707   -4.0365939889    3.2540038980
H       -0.5898541994   -2.6199507214    1.0150517530
H        0.6583755096    0.5353969698    0.6164309744
H       -0.5422782145   -0.5733235196   -0.0780481704
H        0.9815086219   -0.2462577901   -0.9273404352
H        3.2482261885   -2.0690655389    0.2950636511
H        3.0006333540   -1.6844503314    1.9975633570
H        3.0232008766   -0.3914780991    0.7958094122
21   
torsion grid (-90,)
C        0.8736970358   -4.8891055219    1.0386639453
C        1.1456701479   -3.6338616558    1.8893128427
C        0.4709527264   -3.7533948074    3.2682713784
C        0.6659967310   -2.3973738689    1.1692137112
C        1.3936881261   -1.3495482639    0.7483667652
C        0.7474373443   -0.1918049020    0.0236836207
C        2.8914177073   -1.2243972164    0.9426853411
H        1.3798554535   -4.8257670511    0.0699306308
H        1.2222268451   -5.7934699912    1.5509765915
H       -0.2000822823   -5.0058250170    0.8483969397
H        2.2273725043   -3.5671618245    2.0457980519
H        0.6934032857   -2.8818766143    3.8925758425
H        0.8112641282   -4.6516033827    3.7967339655
H       -0.6188026892   -3.8203051761    3.1637482085
H       -0.4082488362   -2.3814520210    0.9688368635
H        0.8728113486    0.7417314256    0.5878745305
H       -0.3224326876   -0.3549475272   -0.1345079431
H        1.2165228056   -0.0302780733   -0.9562396083
H        3.4364702394   -1.6654136019    0.0977766086
H        3.2413789954   -1.7249735643    1.8489329975
H        3.1895500189   -0.1725350813    1.0067070277
21   
torsion grid (-75,)
C        1.0127603076   -4.8416278921    1.0773130832
C        1.2668751278   -3.5962463387    1.9476009062
C        0.5837484586   -3.7419692026    3.3199989035
C        0.7772564606   -2.3547687536    1.2427568919
C        1.4832692089   -1.2861506893    0.8362407933
C        0.8083600890   -0.1302643337    0.1336144058
C        2.9740565611   -1.1176041520    1.0243195781
H        1.5259243751   -4.7600493016    0.1136745934
H        1.3652615425   -5.7500285199    1.5796681300
H       -0.0584377096   -4.9651788346    0.8769239187
H        2.3462865259   -3.5223027553    2.1145279620
H        0.7942074774   -2.8777342539    3.9583471714
H        0.9289523584   -4.6447261777    3.8373577349
H       -0.5046304740   -3.8174716408    3.2072219894
H       -0.2969468431   -2.3527758796    1.0406334861
H        0.9099469357    0.7948624752    0.7161782266
H       -0.2571299111   -0.3167379499   -0.0278832268
H        1.2729260033    0.0623283289   -0.8427230072
H        3.5043225603   -1.2765052238    0.0757990937
H        3.3949099432   -1.8112276931    1.7549465187
H        3.2091839730   -0.0985755901    1.3537107423
21   
torsion grid (-60,)
C        0.9964497649   -4.8280390911    1.0855292096
C        1.2599679868   -3.5771548184    1.9447232985
C        0.5637195709   -3.6993090957    3.3130102133
C        0.7911752064   -2.3364379974    1.2244751925
C        1.5077756199   -1.2750238142    0.8170203443
C        0.8444510449   -0.1201920196    0.1013116649
C        2.9965768969   -1.1100106439    1.0117989132
H        1.5213788754   -4.7648690905    0.1268587155
H        1.3292095089   -5.7362044391    1.6015841453
H       -0.0742615065   -4.9373462917    0.8744279225
H        2.3382913518   -3.5149484587    2.1224247886
H        0.7789687775   -2.8303865776    3.9432967704
H        0.8945686015   -4.6000122531    3.8431428781
H       -0.5244862220   -3.7639436181    3.1921950048
H       -0.2818881952   -2.3246778673    1.0163400862
H        0.9926812413    0.8194472841    0.6498073458
H       -0.2310158541   -0.2785134434   -0.0184564852
H        1.2811067558    0.0272306498   -0.8954252391
H        3.5019968860   -1.0127060870    0.0420785112
H        3.4582656393   -1.9410996476    1.5475159122
H        3.2111958124   -0.1889478419    1.5690169940
21   
torsion grid (-45,)
C        1.0246540874   -4.8972434569    1.1373611137
C        1.2819766329   -3.6248767267    1.9657578658
C        0.6119385498   -3.7301388687    3.3488276968
C        0.7803448734   -2.4057603832    1.2309625513
C        1.4721008276   -1.3320796585    0.8133135243
C        0.7824779874   -0.1968075289    0.0916759205
C        2.9581018202   -1.1352715981    1.0079606285
H        1.5316407624   -4.8454807184    0.1683661289
H        1.3811778104   -5.7892513424    1.6655745394
H       -0.0476261633   -5.0281686700    0.9474481407
H        2.3616778510   -3.5395108584    2.1251045881
H        0.8226466887   -2.8444236150    3.9568552820
H        0.9684163907   -4.6134849663    3.8914502083
H       -0.4768452427   -3.8164978513    3.2489078676
H       -0.2937797970   -2.4197917464    1.0288305645
H        0.9434381848    0.7563519057    0.6129749173
H       -0.2956218591   -0.3610576845    0.0091731259
H        1.1885578139   -0.0720585168   -0.9207777892
H        3.4215678383   -0.7710266964    0.0829964514
H        3.4796265191   -2.0435556964    1.3148341444
H        3.1470413305   -0.3665646155    1.7695267072
21   
torsion grid (-30,)
C        0.9972890148   -5.0328100948    1.2620691144
C        1.2053741878   -3.7464072668    2.0823881080
C        0.5725300514   -3.8828924511    3.4802769886
C        0.6265787348   -2.5557308861    1.3579159389
C        1.2660656888   -1.4549434343    0.9289193762
C        0.5206220054   -0.3441297260    0.2262830853
C        2.7514614670   -1.2132641790    1.1023169605
H        1.4792106441   -4.9572267644    0.2818599867
H        1.4115634518   -5.9036917625    1.7834130712
H       -0.0705920079   -5.2199923865    1.0960224614
H        2.2821889412   -3.6017402616    2.2184651779
H        0.7476525873   -2.9847387728    4.0813511712
H        0.9886967728   -4.7433200763    4.0172052529
H       -0.5117941542   -4.0290162101    3.4046217752
H       -0.4500972170   -2.6172252780    1.1806213263
H        0.6654606293    0.6145679993    0.7423539048
H       -0.5536389212   -0.5427489746    0.1739676677
H        0.8950406202   -0.2081501148   -0.7968453901
H        3.1397753371   -0.5927111232    0.2872705228
H        3.3347004760   -2.1362316771    1.1347179192
H        2.9503732875   -0.6626003934    2.0315747449
21   
torsion grid (-15,)
C        0.9844578518   -5.0621924057    1.2781721213
C        1.1693730252   -3.7690521013    2.0937173466
C        0.5356776493   -3.9098548791    3.4905772356
C        0.5766726589   -2.5898751916    1.3619198887
C        1.2220023147   -1.4983040816    0.9199192885
C        0.4868961316   -0.3868412380    0.2089850083
C        2.7149074044   -1.2836596665    1.0967465822
H        1.4663619729   -4.9823505284    0.2982553013
H        1.4126850957   -5.9239298422    1.8034877382
H       -0.0798688844   -5.2678007506    1.1113391100
H        2.2436695546   -3.6049397094    2.2300395632
H        0.6933359239   -3.0058992832    4.0878767322
H        0.9651490139   -4.7601784055    4.0330853565
H       -0.5457440791   -4.0751214990    3.4127680467
H       -0.5004478188   -2.6538464468    1.1895218704
H        0.6289632126    0.5715538623    0.7262780185
H       -0.5872396109   -0.5832281718    0.1454884632
H        0.8721771640   -0.2519775358   -0.8103676994
H        3.0722069683   -0.4762890008    0.4499343316
H        3.2965967608   -2.1804272396    0.8644328258
H        2.9561998511   -0.9950977928    2.1275903933
21   
torsion grid (0,)
C        0.9693267130   -5.0546447235    1.2859290346
C        1.1639384952   -3.7543254014    2.0878052521
C        0.5386071593   -3.8790865153    3.4898344298
C        0.5732145356   -2.5801254728    1.3465934796
C        1.2258105305   -1.4909508779    0.9101118314
C        0.5059422381   -0.3829557608    0.1791409888
C        2.7184078699   -1.2863406005    1.1126836695
H        1.4434779252   -4.9853980626    0.3014276975
H        1.4001140129   -5.9122067696    1.8158930057
H       -0.0967331865   -5.2596584854    1.1299039360
H        2.2403265843   -3.5937481266    2.2125404036
H        0.7039838341   -2.9701034251    4.0773978851
H        0.9672185685   -4.7262563434    4.0380259892
H       -0.5440654389   -4.0396064244    3.4199797611
H       -0.5010953238   -2.6475734410    1.1593108989
H        0.6129917806    0.5718501014    0.7110286756
H       -0.5616049370   -0.5938071422    0.0681421013
H        0.9313001649   -0.2324685810   -0.8220786244
H        3.0457621424   -0.3355166288    0.6816625644
H        3.3064627501   -2.0799270745    0.6383054022
H        2.9874724917   -1.2734481951    2.1747823820
21   
torsion grid (15,)
C        0.9573002661   -5.0648434842    1.3092993824
C        1.1572364426   -3.7610581788    2.1047054229
C        0.5267953232   -3.8744813722    3.5051914744
C        0.5744238761   -2.5894748195    1.3530050530
C        1.2264793119   -1.5045687362    0.9045886762
C        0.5049954793   -0.4110298644    0.1530487152
C        2.7162980953   -1.2865563138    1.1022633264
H        1.4327221685   -5.0029232299    0.3249702446
H        1.3841569801   -5.9211084128    1.8444663434
H       -0.1094635948   -5.2663963055    1.1536169207
H        2.2346578194   -3.6085134931    2.2293356869
H        0.6991612972   -2.9648326129    4.0897188434
H        0.9452065801   -4.7237199344    4.0580655896
H       -0.5572245164   -4.0245502524    3.4325693281
H       -0.4989869732   -2.6585910834    1.1606898825
H        0.5798607780    0.5456697257    0.6867480312
H       -0.5547917045   -0.6426635625    0.0131609638
H        0.9536478493   -0.2527858099   -0.8368804674
H        2.9887642230   -0.2464037423    0.8980638853
H        3.3044737208   -1.9094500240    0.4166128397
H        3.0419316777   -1.5239155082    2.1192279686
21   
torsion grid (30,)
C        1.0586432332   -5.2689028316    1.4361682470
C        1.1873723580   -3.9447736970    2.2127102031
C        0.5864689194   -4.0800915841    3.6240834375
C        0.5164739417   -2.8244323987    1.4561648360
C        1.0740351040   -1.7049564595    0.9656904226
C        0.2470763453   -0.6850071495    0.2179266141
C        2.5425102703   -1.3578471067    1.0999242095
H        1.5152274191   -5.1899107053    0.4442249583
H        1.5464178905   -6.0892700749    1.9754791944
H        0.0046750457   -5.5394834639    1.2990765904
H        2.2547685071   -3.7246670082    2.3184804397
H        0.7112414459   -3.1546124859    4.1956395478
H        1.0650631515   -4.8952632732    4.1793643325
H       -0.4871715224   -4.2977876058    3.5706245118
H       -0.5545999010   -2.9695128884    1.2943154668
H        0.2512565162    0.2805491987    0.7405738551
H       -0.7917424813   -1.0070827911    0.1024104577
H        0.6603170781   -0.5007103784   -0.7829055766
H        2.6819146898   -0.2715587105    1.1268221112
H        3.1092711007   -1.7206179604    0.2318666759
H        3.0028515506   -1.7820377546    1.9950238083
21   
torsion grid (45,)
C        1.0160645250   -5.2133859887    1.4379736055
C        1.1638884709   -3.8919539866    2.2156557111
C        0.5256750842   -4.0073965353    3.6123698093
C        0.5407145465   -2.7553540513    1.4426078384
C        1.1284814171   -1.6519936138    0.9497741136
C        0.3277311924   -0.6192336588    0.1899138031
C        2.5977397372   -1.3241895669    1.0863670484
H        1.5004024072   -5.1499625135    0.4581826217
H        1.4650490324   -6.0466348070    1.9910641378
H       -0.0415701161   -5.4529109615    1.2738865815
H        2.2338556670   -3.7026517939    2.3489428584
H        0.6620543489   -3.0843398578    4.1851061371
H        0.9687769556   -4.8339040656    4.1801366355
H       -0.5518701864   -4.1963710847    3.5338324202
H       -0.5321708071   -2.8719639028    1.2690379797
H        0.3563413271    0.3522135047    0.7008001209
H       -0.7190971764   -0.9156825214    0.0787565581
H        0.7448832777   -0.4576404531   -0.8130996968
H        2.7317665129   -0.2734610405    1.3710600507
H        3.1101721701   -1.4490735308    0.1228315515
H        3.1142079370   -1.9441019812    1.8212837629
21   
torsion grid (60,)
C        1.0300599711   -5.2340408155    1.4611697157
C        1.1719891947   -3.9058011169    2.2278497969
C        0.5283405629   -4.0104626675    3.6231364653
C        0.5481400609   -2.7767591034    1.4442829325
C        1.1291282253   -1.6705910102    0.9493363962
C        0.3213770318   -0.6473731359    0.1835218449
C        2.5934804601   -1.3266629940    1.0875099276
H        1.5205193874   -5.1788469101    0.4839262071
H        1.4758470750   -6.0622466586    2.0243238277
H       -0.0264007332   -5.4755891068    1.2923782746
H        2.2403814793   -3.7120031596    2.3664593030
H        0.6596145156   -3.0818411767    4.1879683653
H        0.9721401206   -4.8303191787    4.1998957754
H       -0.5482345058   -4.2038574875    3.5422678866
H       -0.5240436121   -2.8989379463    1.2698362039
H        0.3811482595    0.3390648543    0.6622318397
H       -0.7331591709   -0.9289508445    0.1147987836
H        0.7093444920   -0.5241806414   -0.8363378422
H        2.7156709502   -0.3730920088    1.6175922227
H        3.0513621656   -1.1942424023    0.0986917887
H        3.1678966004   -2.0838540008    1.6237979398
21   
torsion grid (75,)
C        1.0540630809   -5.2710606171    1.4979714020
C        1.1875566438   -3.9290370773    2.2412915324
C        0.5566112680   -4.0176440890    3.6437782226
C        0.5454534480   -2.8185289231    1.4461374575
C        1.1125737158   -1.7086653589    0.9439130736
C        0.2936169834   -0.6990425617    0.1724842431
C        2.5743934470   -1.3492477539    1.0863935648
H        1.5361008294   -5.2269080287    0.5159511110
H        1.5129649340   -6.0853549486    2.0708161581
H       -0.0010825705   -5.5263910982    1.3415829467
H        2.2543491494   -3.7194277736    2.3696724519
H        0.6808791732   -3.0779244164    4.1915805004
H        1.0156799942   -4.8218677453    4.2305289030
H       -0.5180299133   -4.2258295407    3.5753521924
H       -0.5252599041   -2.9562902632    1.2747549022
H        0.3682253189    0.2979664777    0.6270238695
H       -0.7636593078   -0.9760213097    0.1326651658
H        0.6614202875   -0.6014534254   -0.8574259698
H        2.7062467634   -0.5513237638    1.8293898132
H        2.9734364173   -0.9704566039    0.1380050497
H        3.1944753425   -2.1922270387    1.3977526463
21   
torsion grid (90,)
C        0.7525066348   -5.3664144551    1.0879254235
C        1.0017120191   -4.1277667943    1.9681598425
C        0.4651532167   -4.3554408926    3.3941305152
C        0.3637986166   -2.9047787207    1.3558512805
C        0.9638580553   -1.7741222832    0.9482816857
C        0.1634938391   -0.6327384732    0.3653020861
C        2.4568266920   -1.5282865692    1.0331619249
H        1.1672176470   -5.2263793844    0.0843399293
H        1.2094387693   -6.2605959002    1.5278420154
H       -0.3221109208   -5.5584543829    0.9817386369
H        2.0836612474   -3.9758618073    2.0411403744
H        0.6701245744   -3.4916110359    4.0347894393
H        0.9256631340   -5.2395689765    3.8502555066
H       -0.6201305198   -4.5130290462    3.3816582094
H       -0.7220753425   -2.9687062638    1.2500422374
H        0.3352913461    0.2952332143    0.9272034917
H       -0.9102258150   -0.8408927490    0.3731850096
H        0.4667609183   -0.4315381247   -0.6705879999
H        2.7264318482   -1.0684829938    1.9930300460
H        2.7846054832   -0.8442806562    0.2431820669
H        3.0405853174   -2.4475163082    0.9404782683
21   
torsion grid (105,)
C        0.7735093277   -5.2896617588    1.0800743350
C        1.0160746314   -4.0454437728    1.9545998389
C        0.4534656686   -4.2573517927    3.3727156624
C        0.4013752807   -2.8220334467    1.3199901131
C        1.0377177684   -1.7165412506    0.9002544349
C        0.2817142935   -0.5599991809    0.2902993194
C        2.5414599835   -1.5308974077    1.0049533983
H        1.2052308080   -5.1601667571    0.0822295518
H        1.2176124060   -6.1832049511    1.5342719124
H       -0.3004467307   -5.4756187595    0.9578969354
H        2.0979402082   -3.8993810658    2.0434245654
H        0.6526623034   -3.3893202765    4.0095945301
H        0.8998862148   -5.1403313359    3.8447945585
H       -0.6324606922   -4.4079706901    3.3423891180
H       -0.6844002259   -2.8638354402    1.2047588730
H        0.4638070556    0.3671959717    0.8501267683
H       -0.7968618381   -0.7410000842    0.2732163856
H        0.6149385594   -0.3740168651   -0.7393273505
H        2.8489504708   -1.3224251506    2.0371894769
H        2.8764043647   -0.6905186732    0.3892528947
H        3.0912533680   -2.4187550103    0.6781205959
21   
torsion grid (120,)
C        0.7447680697   -5.4056059118    1.1173492580
C        0.9725953017   -4.1529639810    1.9839305569
C        0.4395316052   -4.3730864304    3.4119952153
C        0.3202643813   -2.9466632582    1.3543393248
C        0.9310760534   -1.8278975575    0.9324551842
C        0.1517708466   -0.6904363331    0.3168132860
C        2.4328382064   -1.6173627227    1.0379175179
H        1.1536721670   -5.2683288685    0.1109688137
H        1.2205814852   -6.2859113698    1.5651743670
H       -0.3261751250   -5.6195774849    1.0167327287
H        2.0524968775   -3.9817060201    2.0504794030
H        0.6304016416   -3.4988966233    4.0430340704
H        0.9129906791   -5.2447137808    3.8788859410
H       -0.6432441459   -4.5471370977    3.4005820094
H       -0.7642138530   -3.0165964799    1.2412518507
H        0.2895793767    0.2354478670    0.8910647033
H       -0.9193451384   -0.9073851920    0.2712055019
H        0.5025631188   -0.4811556178   -0.7025828508
H        2.7784978383   -1.6612478055    2.0767548240
H        2.7205517031   -0.6399367651    0.6393267017
H        2.9908658472   -2.3758558795    0.4776091306
21   
torsion grid (135,)
C        0.7917640401   -5.1737082685    1.0103321719
C        1.0609812905   -3.9379045024    1.8894781489
C        0.4863347165   -4.1393444363    3.3039421224
C        0.4803450465   -2.6997722202    1.2514154564
C        1.1452787878   -1.6062172808    0.8447741652
C        0.4246184827   -0.4419500431    0.2074650276
C        2.6494947558   -1.4471635946    0.9808846338
H        1.2284316003   -5.0511885477    0.0138053995
H        1.2153089279   -6.0778748884    1.4630148004
H       -0.2857554032   -5.3358241590    0.8858328776
H        2.1464604660   -3.8215822136    1.9780248543
H        0.7067009829   -3.2794861575    3.9449809688
H        0.9048078644   -5.0364504003    3.7750991596
H       -0.6033344441   -4.2585228852    3.2676174990
H       -0.6030045076   -2.7235145350    1.1106600200
H        0.5597023476    0.4732744888    0.7989414144
H       -0.6483158032   -0.6304348218    0.1091876061
H        0.8273445419   -0.2303981482   -0.7922023936
H        3.0117535463   -1.7530352427    1.9668978064
H        2.9440705799   -0.4030471955    0.8353919814
H        3.1870194927   -2.0410565677    0.2314244341
21   
torsion grid (150,)
C        0.7842313743   -5.1973569347    1.0386169750
C        1.0611643159   -3.9553701068    1.9067526113
C        0.4784041845   -4.1376782666    3.3204531512
C        0.4913044690   -2.7197940506    1.2539144609
C        1.1491276739   -1.6249871190    0.8377577351
C        0.4158268036   -0.4736475656    0.1896783774
C        2.6469790517   -1.4349825005    0.9658727079
H        1.2261308415   -5.0885456927    0.0428528903
H        1.1979829568   -6.1005239863    1.5021521105
H       -0.2941734696   -5.3514108332    0.9114014086
H        2.1472034226   -3.8501669812    1.9985483818
H        0.7070844507   -3.2752340386    3.9550154629
H        0.8837721272   -5.0359961429    3.8006679318
H       -0.6125446738   -4.2436084094    3.2808669452
H       -0.5914910170   -2.7464754900    1.1080347539
H        0.5221273420    0.4422847694    0.7857225905
H       -0.6511123043   -0.6834549449    0.0719142026
H        0.8312604675   -0.2510745039   -0.8024113858
H        3.0678947142   -1.9520479349    1.8314391182
H        2.8900329882   -0.3717663289    1.0717154547
H        3.1707935186   -1.7917146237    0.0695732471
21   
torsion grid (165,)
C        0.8967719858   -5.0496661056    1.0336102464
C        1.1715929069   -3.8242443738    1.9255359910
C        0.5602800197   -4.0210009463    3.3252316194
C        0.6252768069   -2.5732672953    1.2817974447
C        1.2891993594   -1.4755467410    0.8818990132
C        0.5588462229   -0.3150213640    0.2455742820
C        2.7822496497   -1.2769751547    1.0127225116
H        1.3605234162   -4.9319359662    0.0488884265
H        1.2893059217   -5.9647818708    1.4921446533
H       -0.1806526596   -5.1878234446    0.8820629627
H        2.2564618849   -3.7340542366    2.0411244810
H        0.7868226259   -3.1708725969    3.9768702905
H        0.9468867160   -4.9309605962    3.7988817247
H       -0.5308364742   -4.1142500236    3.2641046456
H       -0.4566543529   -2.5893542513    1.1269636015
H        0.6719969243    0.5962706898    0.8474586131
H       -0.5096773542   -0.5184951875    0.1316846062
H        0.9704305911   -0.0874686983   -0.7468967869
H        3.2537296642   -1.9878825587    1.6938306525
H        3.0011484679   -0.2683529424    1.3843195151
H        3.2743051804   -1.3635808703    0.0349520364
21   
torsion grid (180,)
C        0.9158629605   -5.0734854962    1.0565845397
C        1.1797696291   -3.8406289049    1.9412661265
C        0.5596598845   -4.0295628114    3.3383146031
C        0.6316132981   -2.5961799206    1.2864443385
C        1.2880204977   -1.4951034454    0.8828178718
C        0.5482713917   -0.3437444844    0.2401684016
C        2.7775168953   -1.2796324824    1.0118610924
H        1.3881961252   -4.9621924117    0.0752003689
H        1.3060059576   -5.9843052749    1.5256128797
H       -0.1598716353   -5.2150516742    0.8962791855
H        2.2629814795   -3.7446837839    2.0664552232
H        0.7767831444   -3.1729493973    3.9845966408
H        0.9485869064   -4.9333464696    3.8217265323
H       -0.5304129728   -4.1300640465    3.2705330177
H       -0.4502195211   -2.6180616128    1.1312011403
H        0.6932759989    0.5836084713    0.8100193668
H       -0.5260013702   -0.5368964453    0.1717985386
H        0.9257862948   -0.1507246682   -0.7727951225
H        3.2982294214   -2.1181351566    1.4772579455
H        2.9850769504   -0.3814190541    1.6078671841
H        3.2275115358   -1.1091758155    0.0251588074
