21   
torsion grid (-60,)
C        1.0047229933   -5.5135047992   -1.9293670397
C        0.5892494785   -4.3565631960   -1.2025092325
C        1.8467782165   -5.0674994952   -2.9139348045
C        1.2106043893   -3.2751003334   -1.7919424048
C       -0.5268112963   -0.7470434308    1.1716517759
C        0.5497238510   -1.2278050974   -0.5581608736
C        0.4812047210    0.3074652510   -0.3636813615
C        1.2246474816   -1.8623364409   -1.5401276140
C       -1.2221462338    1.6287650507    0.8414985460
N       -0.2425867219   -1.8290179537    0.5142760934
N       -0.8116147149    0.3320013383    0.2755624250
O        1.1684947334    1.2397573843   -0.7068714193
O        1.9848321536   -3.7146911515   -2.8493075661
H        0.7189895024   -6.5417615994   -1.7503929521
H       -0.0733386741   -4.3007371090   -0.3507919686
H        2.3989665050   -5.5617297001   -3.7007471356
H       -0.9627272527   -0.7318800453    2.1728622308
H        1.8421767260   -1.2532062333   -2.1960790678
H       -0.4564747589    2.0786943853    1.4829156499
H       -2.1457304967    1.4874505703    1.4076952938
H       -1.4190319313    2.3111687312    0.0128089364
21   
torsion grid (-45,)
C        1.0525337153   -5.5212560605   -1.8698954915
C        0.6190242813   -4.3619510429   -1.1606394972
C        1.8750619654   -5.0740952234   -2.8717856673
C        1.2103131625   -3.2766370727   -1.7770707104
C       -0.6448675513   -0.7731726287    1.1588011117
C        0.5041430614   -1.2252507726   -0.5727338913
C        0.4354701467    0.2806034524   -0.4137533284
C        1.1928649375   -1.8639952125   -1.5492382543
C       -1.1020935923    1.6830557573    0.9446511710
N       -0.2743370029   -1.8158983708    0.4748954652
N       -0.7712010829    0.3807565959    0.3564556299
O        1.0937460503    1.1987801691   -0.8588040234
O        1.9840068842   -3.7192450842   -2.8349377124
H        0.7921513821   -6.5522967830   -1.6696978144
H       -0.0367450039   -4.3014913002   -0.3039554984
H        2.4302412879   -5.5717380502   -3.6544501285
H       -1.1538826175   -0.8234714996    2.1209154142
H        1.7876581134   -1.2490625630   -2.2205121925
H       -0.3327914534    2.0421169954    1.6372368741
H       -2.0595005177    1.6034921332    1.4647267889
H       -1.1983551026    2.4065464217    0.1337318618
21   
torsion grid (-30,)
C        1.0963816424   -5.5229942042   -1.8286304763
C        0.6380739856   -4.3624998115   -1.1393835224
C        1.9081162974   -5.0745251093   -2.8397255532
C        1.2042272616   -3.2739142444   -1.7757550176
C       -0.7681984211   -0.7956843312    1.1085511873
C        0.4460439067   -1.2203140335   -0.6061887535
C        0.3726767320    0.2697471040   -0.4702392636
C        1.1513467401   -1.8610245551   -1.5740876555
C       -1.0172187053    1.7126588977    1.0276221305
N       -0.3289924803   -1.8101152029    0.4218430009
N       -0.7312592352    0.4175732947    0.4161729724
O        0.9947644905    1.1778408338   -0.9963162073
O        1.9873363915   -3.7183225294   -2.8269620065
H        0.8596246165   -6.5560992296   -1.6106307954
H       -0.0187607487   -4.2994404182   -0.2836975243
H        2.4736808341   -5.5740288296   -3.6138202204
H       -1.3388325784   -0.8851431155    2.0303604727
H        1.7268325607   -1.2410973063   -2.2575911379
H       -0.2403974394    2.0168216029    1.7379640887
H       -1.9822175674    1.6635537083    1.5373633950
H       -1.0705403154    2.4594091836    0.2340960310
21   
torsion grid (-15,)
C        1.1256828711   -5.4966596147   -1.7596936098
C        0.6490645153   -4.3382396125   -1.0806389662
C        1.9116810066   -5.0428466489   -2.7891118721
C        1.1782292397   -3.2448468718   -1.7414131416
C       -0.8541922909   -0.7908034417    1.1216690871
C        0.3820043244   -1.1936606857   -0.5915672877
C        0.3001942415    0.2895698921   -0.4706591877
C        1.0894655031   -1.8323326124   -1.5617416769
C       -0.9743455065    1.7451183130    1.1468626880
N       -0.3756297842   -1.7881917223    0.4359772153
N       -0.6707556825    0.4574121003    0.5430085870
O        0.8590585565    1.1926121074   -1.0791392291
O        1.9574550951   -3.6856775507   -2.7975597443
H        0.9179319883   -6.5320320933   -1.5236568178
H        0.0026868753   -4.2775072754   -0.2168657147
H        2.4785655418   -5.5399827816   -3.5638135258
H       -1.4595089553   -0.9016874777    2.0174075117
H        1.6357132804   -1.2068373878   -2.2640281825
H       -0.3192557731    1.9609244639    1.9983054908
H       -2.0167296625    1.7654549750    1.4749691520
H       -0.8214479643    2.5130348862    0.3868479719
21   
torsion grid (0,)
C        1.2035309364   -5.6124230804   -1.7796827510
C        0.7161989660   -4.4582879209   -1.1013130088
C        1.9430322116   -5.1515888621   -2.8401180493
C        1.1911798163   -3.3598651984   -1.7944476923
C       -0.8488944753   -0.9286257673    1.0810070985
C        0.3681600225   -1.3153291712   -0.6511733299
C        0.2731816709    0.1663457238   -0.5363635203
C        1.0641656789   -1.9483996560   -1.6340485213
C       -0.9284749043    1.6174152131    1.1549443296
N       -0.3571204437   -1.9177383052    0.3922355274
N       -0.5305695755    0.3325887460    0.6091798133
O        0.7417295809    1.0706227783   -1.2176740925
O        1.9493014644   -3.7941215806   -2.8687361869
H        1.0336709875   -6.6497063802   -1.5226779405
H        0.0961251247   -4.4028250149   -0.2181336233
H        2.4991769935   -5.6438828235   -3.6256403688
H       -1.4672447837   -1.0499326449    1.9659370808
H        1.5686441611   -1.3177289461   -2.3625084927
H       -0.5802820454    1.7307299240    2.1863615045
H       -2.0158162276    1.7398839651    1.1230899737
H       -0.4659405952    2.3885948931    0.5360630539
21   
torsion grid (15,)
C        1.2138364917   -5.4928025290   -1.6928796868
C        0.7441975141   -4.3341153355   -1.0093988159
C        1.9285388086   -5.0388538214   -2.7729449603
C        1.2036947392   -3.2404390705   -1.7199190114
C       -0.7920934793   -0.7853502525    1.1678730848
C        0.4060781615   -1.1887329363   -0.5720619766
C        0.3361508944    0.2944998350   -0.4434214981
C        1.0789383468   -1.8275328954   -1.5664452760
C       -0.7469582897    1.7491467188    1.3088346798
N       -0.3168645759   -1.7830328452    0.4802951069
N       -0.2935076477    0.4599956728    0.8114302646
O        0.7331592573    1.1985330194   -1.1667024272
O        1.9361178109   -3.6813683584   -2.8090014636
H        1.0489658792   -6.5284056771   -1.4260210194
H        0.1448823539   -4.2734191374   -0.1123302039
H        2.4655600104   -5.5360587392   -3.5685965599
H       -1.4362044253   -0.8954497588    2.0362350824
H        1.5662023039   -1.2019426363   -2.3107895020
H       -0.7046777577    1.7623099865    2.4009631142
H       -1.7669754075    1.9777387408    0.9801782542
H       -0.0746791472    2.5123571038    0.9136501002
21   
torsion grid (30,)
C        1.2886564296   -5.5203368316   -1.6888232836
C        0.8039789561   -4.3591997644   -1.0189478345
C        1.9766254349   -5.0713000275   -2.7876340554
C        1.2277623975   -3.2698110099   -1.7566226080
C       -0.8074248988   -0.7895942016    1.0819291148
C        0.3998497347   -1.2150539357   -0.6375323947
C        0.3124128215    0.2752151454   -0.5122982897
C        1.0705890037   -1.8559777371   -1.6295340700
C       -0.6203702388    1.7151769412    1.3081716035
N       -0.3175803735   -1.8047539725    0.4315744858
N       -0.1536430716    0.4184663671    0.8250077240
O        0.6111023152    1.1855258002   -1.2676056337
O        1.9536598163   -3.7142469584   -2.8480721445
H        1.1505411643   -6.5541005216   -1.4004769001
H        0.2163516339   -4.2962527846   -0.1143278917
H        2.5127554393   -5.5709317066   -3.5823124914
H       -1.4872534479   -0.8776060324    1.9265853141
H        1.5300848638   -1.2355401615   -2.3954311393
H       -0.7783727891    1.6601440398    2.3877466888
H       -1.5463706355    2.0328638237    0.8160424529
H        0.1532357577    2.4551579968    1.0981536666
21   
torsion grid (45,)
C        1.3422635334   -5.5192507927   -1.6614960392
C        0.8306875700   -4.3589890913   -1.0080105336
C        2.0178169775   -5.0714998291   -2.7675790756
C        1.2268328660   -3.2724257482   -1.7629695300
C       -0.8952394621   -0.7656787502    0.9825872141
C        0.3493059218   -1.2192711031   -0.6809712892
C        0.2388045493    0.2870038168   -0.5523547011
C        1.0335142002   -1.8582574458   -1.6604778396
C       -0.5144600597    1.6839470184    1.3600400072
N       -0.3852771812   -1.8098604117    0.3978945735
N       -0.0842886154    0.3805882685    0.8426832163
O        0.4490575925    1.2084943484   -1.3146462181
O        1.9615565566   -3.7153244143   -2.8481475217
H        1.2289155513   -6.5513446926   -1.3567755808
H        0.2420900186   -4.2986428451   -0.1038476435
H        2.5653436442   -5.5694667088   -3.5554132846
H       -1.6333784334   -0.8137735873    1.7826443661
H        1.4750291228   -1.2424182065   -2.4404501561
H       -0.6862792715    1.5986140265    2.4355082406
H       -1.4200862208    2.0561909808    0.8684082690
H        0.2898118527    2.4001467905    1.1853792015
21   
torsion grid (60,)
C        1.4272264165   -5.5141234636   -1.6516817968
C        0.8979861818   -4.3576562443   -1.0020752601
C        2.0786448082   -5.0632509175   -2.7695894816
C        1.2605372322   -3.2717828303   -1.7718472522
C       -0.9185915487   -0.7436453441    0.8861355145
C        0.3511785030   -1.2231943335   -0.7083003281
C        0.2045433353    0.3120890626   -0.5663168119
C        1.0372004477   -1.8569029151   -1.6829972936
C       -0.3545460690    1.6223025362    1.4520276188
N       -0.4026262663   -1.8264615034    0.3915782590
N        0.0311187568    0.3273323191    0.8652812364
O        0.3097937740    1.2491596170   -1.3215678748
O        1.9909028939   -3.7078290718   -2.8613565097
H        1.3399326583   -6.5452756188   -1.3353066402
H        0.3183657766   -4.3048508026   -0.0916811000
H        2.6277291225   -5.5555105101   -3.5597888576
H       -1.7182745461   -0.7264201155    1.6298457612
H        1.4536559593   -1.2439968569   -2.4789539841
H       -0.5990550726    1.4708437543    2.5060046171
H       -1.1994507413    2.0920913971    0.9367295332
H        0.5040434625    2.2926866922    1.3838891692
