21   
torsion grid (-165,)
C       -1.1250926724   -2.2832457547    3.2892598103
C       -1.5340955344    0.0805319787   -0.4792295932
C       -0.9171277016    1.4683558445    1.5459321400
C       -3.2690189692    0.5699672908    1.2835535112
C       -1.7795546539    0.3107473273    1.0160076156
N       -0.4032699999   -2.7355684977    2.2294453575
N       -1.7565478495   -1.1359273399    3.0306932989
N       -0.5845411682   -1.8469249417    1.2680341512
N       -1.3886131073   -0.9174137035    1.7546069411
N       -1.2428128833   -2.9848550809    4.4765703691
H       -2.1210521027   -0.7639457964   -0.8495349813
H       -1.8366101291    0.9806039724   -1.0220769591
H       -0.4816933563   -0.1183311473   -0.6895351203
H       -1.0700192996    1.6014553765    2.6202511167
H        0.1438386017    1.2726700377    1.3640840126
H       -1.1906876455    2.3977285263    1.0373219198
H       -3.4581291057    0.7223431408    2.3476939799
H       -3.5804302304    1.4654362427    0.7377348349
H       -3.8764042490   -0.2733169888    0.9420277385
H       -1.4385668614   -2.3946316411    5.2765456866
H       -0.4615070383   -3.6111303972    4.6344091396
21   
torsion grid (-150,)
C       -1.1207326355   -2.3005948176    3.2784243127
C       -1.5927835845    0.0444877816   -0.4730876951
C       -0.8859636387    1.4853287088    1.4882426692
C       -3.2482908230    0.5921941713    1.3463813979
C       -1.7741167092    0.3180811830    1.0256290635
N       -0.1699903882   -2.5639048940    2.3430260793
N       -1.8804837088   -1.2498431276    2.9600061188
N       -0.3345507841   -1.6524693669    1.4002481280
N       -1.3509904168   -0.8949413099    1.7747374340
N       -1.3173499649   -3.0904624367    4.3983473260
H       -2.1974111576   -0.8106618469   -0.7879161757
H       -1.9171356907    0.9254762315   -1.0344990831
H       -0.5499596123   -0.1636027479   -0.7185316243
H       -0.9948648224    1.6481772467    2.5644835428
H        0.1654205734    1.2789412079    1.2693266399
H       -1.1766702389    2.4030974947    0.9680414509
H       -3.3961200514    0.7900959138    2.4093001167
H       -3.5746458391    1.4667749255    0.7760779423
H       -3.8747646037   -0.2591527272    1.0662800110
H       -1.7350068271   -2.5916344250    5.1751666342
H       -0.4809059192   -3.5976143354    4.6644187347
21   
torsion grid (-135,)
C       -1.1197066657   -2.3295258117    3.2725217751
C       -1.6422642544   -0.0111462036   -0.4406925641
C       -0.8739384119    1.5164660827    1.4289564215
C       -3.2316130869    0.6065847100    1.4181991323
C       -1.7708637370    0.3257877240    1.0520361802
N       -0.0174182993   -2.4101657417    2.4814069838
N       -1.9540871710   -1.3567837295    2.8971100363
N       -0.1592635411   -1.4597938753    1.5738480655
N       -1.3062257308   -0.8554163881    1.8296553558
N       -1.3739202922   -3.2139624536    4.3074359549
H       -2.2635649441   -0.8744840922   -0.6962956345
H       -1.9766972604    0.8452640651   -1.0336034079
H       -0.6078259819   -0.2388314271   -0.7053155819
H       -0.9444351831    1.7273633351    2.5003488649
H        0.1698810066    1.3064458641    1.1820237160
H       -1.1912807165    2.4079687104    0.8795199866
H       -3.3412760387    0.8437472977    2.4780288348
H       -3.5778714810    1.4608993391    0.8292088583
H       -3.8684681653   -0.2527853710    1.1941809550
H       -1.9615337267   -2.8237922375    5.0349466829
H       -0.5262845088   -3.6323141025    4.6737383718
21   
torsion grid (-120,)
C       -1.1151741385   -2.3397859131    3.2534114425
C       -1.6735075611   -0.0710701521   -0.4118662523
C       -0.8551317249    1.5600419495    1.3451114546
C       -3.2055701530    0.6445261702    1.4628703855
C       -1.7572667366    0.3477608806    1.0645589843
N        0.0860290239   -2.2556145990    2.6234494722
N       -1.9903555695   -1.4290320676    2.8192181325
N       -0.0336348009   -1.2629821018    1.7586095741
N       -1.2602046239   -0.7893100879    1.8877066075
N       -1.4099790730   -3.3131577382    4.1937432470
H       -2.2966120418   -0.9508390675   -0.5987409622
H       -2.0294057205    0.7467961089   -1.0455790334
H       -0.6442829735   -0.3083475964   -0.6903246588
H       -0.8932533207    1.8320789854    2.4042998987
H        0.1817348669    1.3428535075    1.0788116654
H       -1.1974303282    2.4157961467    0.7554826980
H       -3.2804726923    0.9295939515    2.5146393188
H       -3.5687208168    1.4737426063    0.8487182339
H       -3.8505783109   -0.2213816118    1.2989445956
H       -2.1279135740   -3.0321494271    4.8513421398
H       -0.5791612035   -3.6684812229    4.6533270592
21   
torsion grid (-105,)
C       -1.1087431792   -2.3568223702    3.2315978286
C       -1.7075056885   -0.1387900945   -0.3666569523
C       -0.8448129394    1.5869733188    1.2720412175
C       -3.1889683184    0.6832874740    1.5101585937
C       -1.7527185519    0.3621665556    1.0866672301
N        0.1497918998   -2.1110774451    2.7810516907
N       -2.0100329726   -1.5071506487    2.7324186665
N        0.0415901949   -1.0749076272    1.9674915750
N       -1.2337413677   -0.7291760730    1.9560094441
N       -1.4197836431   -3.4162959364    4.0676233402
H       -2.3261752851   -1.0334525171   -0.4849486198
H       -2.0884943443    0.6368869258   -1.0379051085
H       -0.6827244215   -0.3819328283   -0.6584996854
H       -0.8585834337    1.9246894313    2.3126013618
H        0.1862851501    1.3577105073    0.9962618321
H       -1.2055437004    2.4022283915    0.6379707287
H       -3.2323803982    1.0010338143    2.5550337718
H       -3.5608524559    1.4982934800    0.8823801338
H       -3.8452829072   -0.1804801839    1.3894906132
H       -2.2457283060   -3.2539269223    4.6317852611
H       -0.6247189110   -3.7178219684    4.6195991047
21   
torsion grid (-90,)
C       -0.9172099202   -2.3354083060    3.1699248222
C       -0.6267355990    0.4608981640    0.0626515808
C       -2.0156001331    1.7367677393    1.7480971741
C       -3.0494233178   -0.1638635548    0.4508260080
C       -1.7651645036    0.3717582910    1.0934691263
N       -0.2931711251   -1.3311554631    3.8407917530
N       -1.5835433743   -1.9025275926    2.0969559198
N       -0.5696038430   -0.2270801099    3.1688619136
N       -1.3371185555   -0.5805550525    2.1524838999
N       -0.8142621641   -3.6668581579    3.5355105745
H       -0.4247176455   -0.5216636229   -0.3736398951
H       -0.9066378979    1.1470348230   -0.7425444941
H        0.2888458825    0.8300373667    0.5328914802
H       -2.7969152607    1.6659347500    2.5102306837
H       -1.1112279919    2.1258364932    2.2188422450
H       -2.3431984495    2.4422117047    0.9789931446
H       -3.8439400135   -0.2723862385    1.1944738486
H       -3.3824216311    0.5461917237   -0.3117460606
H       -2.8857894595   -1.1346659389   -0.0198230851
H       -1.6041704742   -4.2278104624    3.2386327987
H       -0.6028575917   -3.7816085699    4.5202994659
21   
torsion grid (-75,)
C       -0.9101177079   -2.3182726672    3.1778871528
C       -0.6435646702    0.3887339893    0.0631459202
C       -1.9596023195    1.7727024572    1.7186577323
C       -3.0877902492   -0.1211166661    0.4904529338
C       -1.7743416176    0.3798119710    1.1058688737
N       -0.5624477914   -1.2929200750    4.0004934777
N       -1.4315293151   -1.8984242434    2.0230431462
N       -0.8653332425   -0.1876575499    3.3420541395
N       -1.3814793119   -0.5630782741    2.1844992065
N       -0.6857360932   -3.6475897156    3.4918175030
H       -0.4866369941   -0.6137574136   -0.3438857418
H       -0.9023926313    1.0626731383   -0.7591306832
H        0.2915455676    0.7337032889    0.5139210092
H       -2.7369379058    1.7662426548    2.4873202250
H       -1.0367374206    2.1395402170    2.1712245773
H       -2.2598615337    2.4626444465    0.9248477907
H       -3.8789987324   -0.1607530937    1.2450292510
H       -3.3979817893    0.5675906965   -0.3008441234
H       -2.9677632162   -1.1179839045    0.0623789513
H       -1.3229370110   -4.2843344558    3.0279249156
H       -0.6349345443   -3.8054048228    4.4918694181
21   
torsion grid (-60,)
C       -0.8895953941   -2.3097013793    3.1867830325
C       -0.6609252252    0.3189272586    0.0375220944
C       -1.8881419492    1.7842417874    1.6895495697
C       -3.1108594099   -0.0940408359    0.5244549046
C       -1.7666104446    0.3740837795    1.1037225814
N       -0.8696045138   -1.3097924767    4.1077155589
N       -1.2172506521   -1.8793009366    1.9662649089
N       -1.1902884828   -0.2093349904    3.4486577160
N       -1.3914747158   -0.5640516587    2.1916744049
N       -0.5402100024   -3.6159552604    3.4824014849
H       -0.5554633830   -0.6929822437   -0.3601043508
H       -0.9112452092    0.9958716340   -0.7847209665
H        0.2989945098    0.6283479856    0.4616784731
H       -2.6540795838    1.8308605935    2.4668771692
H       -0.9439795343    2.1206616340    2.1234557791
H       -2.1660507158    2.4681468695    0.8825026334
H       -3.8902866847   -0.0723557300    1.2921965511
H       -3.4095514495    0.5715846641   -0.2908312232
H       -3.0324810476   -1.1117348756    0.1354071095
H       -0.9698636564   -4.2972968168    2.8677283672
H       -0.6688556670   -3.8381547463    4.4630426973
21   
torsion grid (-45,)
C       -0.9108505360   -2.2828635254    3.2092578663
C       -0.6957894466    0.2834408417    0.0255075937
C       -1.8214304298    1.8176111363    1.6862471428
C       -3.1487363467   -0.0188075301    0.5626667635
C       -1.7736277385    0.3975895431    1.1125253149
N       -1.2306141173   -1.3603887091    4.1556650611
N       -1.0269517554   -1.8084467688    1.9669627975
N       -1.5570033725   -0.2654140416    3.4913820337
N       -1.4247906607   -0.5450714575    2.2062081655
N       -0.4462782520   -3.5497219279    3.5172734662
H       -0.6526756642   -0.7282792346   -0.3817119622
H       -0.9285470257    0.9808298358   -0.7845693142
H        0.2895261045    0.5360648173    0.4282183554
H       -2.5812183215    1.9125346335    2.4640442867
H       -0.8572854988    2.1028141191    2.1151998515
H       -2.0609604536    2.5105213344    0.8745950316
H       -3.9120769392    0.0480083912    1.3436006644
H       -3.4353133164    0.6433023756   -0.2600078639
H       -3.1187788959   -1.0456644707    0.1887079214
H       -0.6320271987   -4.2347788658    2.7942137282
H       -0.7453914232   -3.8586489411    4.4352246331
21   
torsion grid (-30,)
C       -0.9127731604   -2.2668963913    3.2276631646
C       -0.7254821085    0.2330857601    0.0099437907
C       -1.7521962328    1.8216579447    1.6815783745
C       -3.1828481032    0.0510253010    0.5734771830
C       -1.7825800467    0.3996396680    1.1076902859
N       -1.5316523950   -1.4554371699    4.1259561623
N       -0.8621172043   -1.7365639852    2.0034747263
N       -1.8827157193   -0.3758164886    3.4495263634
N       -1.4721487983   -0.5540428834    2.2057403778
N       -0.3353176158   -3.4761948534    3.5751598294
H       -0.7452072861   -0.7721784205   -0.4139787653
H       -0.9293237173    0.9557318598   -0.7856151480
H        0.2785844620    0.4202705055    0.4006240075
H       -2.4875940028    1.9464072497    2.4780980669
H       -0.7636215378    2.0572780627    2.0858584792
H       -1.9780757489    2.5306526540    0.8798274658
H       -3.9335264519    0.1598645765    1.3612687105
H       -3.4439736392    0.7206924121   -0.2516203410
H       -3.2082100585   -0.9785512791    0.2047440184
H       -0.2848033234   -4.1346177502    2.8066407202
H       -0.7522506618   -3.8780824226    4.4071802997
21   
torsion grid (-15,)
C       -0.9088448375   -2.2499061582    3.2480198492
C       -0.7660791020    0.1852838060   -0.0036584746
C       -1.6896893686    1.8045810596    1.6988906077
C       -3.2257195286    0.1374347069    0.5692245847
C       -1.8057681203    0.3949521462    1.1013578239
N       -1.7551518764   -1.5647050827    4.0614282227
N       -0.7566015279   -1.6686243586    2.0553746254
N       -2.1485563113   -0.5136168170    3.3631823801
N       -1.5465939449   -0.5876311639    2.1891606784
N       -0.2275564217   -3.3864323064    3.6506189085
H       -0.8367235621   -0.8144474091   -0.4360614030
H       -0.9450804936    0.9227219413   -0.7915731989
H        0.2495564692    0.3206244564    0.3765713532
H       -2.4127161813    1.9515605667    2.5035257384
H       -0.6858310329    1.9727656149    2.0998806734
H       -1.8793280683    2.5446561742    0.9158442844
H       -3.9649948260    0.2688042082    1.3634729736
H       -3.4516093420    0.8395840516   -0.2390617384
H       -3.3109652082   -0.8804222458    0.1767772266
H        0.0204469424   -3.9999095378    2.8832053550
H       -0.7022187866   -3.8744020158    4.4017906014
21   
torsion grid (0,)
C       -0.9064488177   -2.2329398818    3.2618088447
C       -0.8094721204    0.1448485675   -0.0265526885
C       -1.6288775051    1.7674912755    1.7251377324
C       -3.2652187379    0.2259529253    0.5580587593
C       -1.8313567583    0.3833403514    1.0884886017
N       -1.9297153512   -1.6875252206    3.9705480931
N       -0.6840995022   -1.6005898047    2.1065751128
N       -2.3680429722   -0.6750455575    3.2423380394
N       -1.6242241810   -0.6392112362    2.1510273867
N       -0.1396862040   -3.2874290049    3.7294436544
H       -0.9235468489   -0.8477475608   -0.4677144956
H       -0.9692420144    0.8950903257   -0.8064679527
H        0.2141745880    0.2365580790    0.3430781158
H       -2.3456368480    1.9322478487    2.5327835566
H       -0.6176826882    1.8596170236    2.1326906237
H       -1.7691238219    2.5436772886    0.9668192041
H       -3.9937379087    0.3689159805    1.3593097422
H       -3.4509898354    0.9699528632   -0.2223748057
H       -3.4103665212   -0.7699375773    0.1285062052
H        0.2794977035   -3.8384550640    2.9895101246
H       -0.6385919053   -3.8569511822    4.4035876742
21   
torsion grid (15,)
C       -0.9126928410   -2.2185809806    3.2712228014
C       -0.8569668249    0.1130966757   -0.0582219112
C       -1.5705160968    1.7167607084    1.7579719965
C       -3.2985496319    0.3101168627    0.5533709359
C       -1.8556470298    0.3684150605    1.0746611188
N       -2.0802674504   -1.8336327339    3.8506560087
N       -0.6336317513   -1.5257761188    2.1640985428
N       -2.5528933709   -0.8614467834    3.0897948724
N       -1.6929125428   -0.6985037211    2.0999169416
N       -0.0799024900   -3.1826425181    3.8145586734
H       -1.0187346688   -0.8656848623   -0.5169765203
H       -0.9963314820    0.8833284335   -0.8223765519
H        0.1734883126    0.1552177741    0.2991851172
H       -2.2752886844    1.8920004790    2.5747760896
H       -0.5544412234    1.7350202501    2.1632933704
H       -1.6679623268    2.5287019189    1.0308468415
H       -4.0152597830    0.4682583332    1.3615121674
H       -3.4409834813    1.0896670979   -0.2008234781
H       -3.5043318538   -0.6604906853    0.0922484049
H        0.4985325873   -3.6485947381    3.1252722511
H       -0.5808047543   -3.8349992715    4.4072080566
21   
torsion grid (30,)
C       -0.9290896178   -2.2045675408    3.2799771289
C       -0.9049314248    0.0841024476   -0.0980229719
C       -1.5105632322    1.6627031953    1.7794199354
C       -3.3242498494    0.3832581642    0.5608918714
C       -1.8739420277    0.3523707518    1.0591484707
N       -2.2080439462   -2.0049595767    3.6951574945
N       -0.5963703970   -1.4299284472    2.2445773515
N       -2.6999832554   -1.0712214827    2.8994679604
N       -1.7418678662   -0.7516295422    2.0468592037
N       -0.0568690434   -3.0756197341    3.9104716486
H       -1.1262563958   -0.8715091489   -0.5817862506
H       -1.0142972867    0.8814736219   -0.8388423035
H        0.1304432120    0.0623911028    0.2456342861
H       -2.1937895618    1.8452359863    2.6135102551
H       -0.4888231045    1.6173800318    2.1672818836
H       -1.5798474454    2.5027874940    1.0815963131
H       -4.0235077775    0.5653739864    1.3786344884
H       -3.4273946300    1.1855673973   -0.1754295131
H       -3.5924509970   -0.5634552975    0.0832675576
H        0.6716905446   -3.4272616243    3.3003025758
H       -0.5411718372   -3.8156062229    4.4059960524
21   
torsion grid (45,)
C       -0.9484876666   -2.2009297840    3.2828630260
C       -0.9573889267    0.0571603662   -0.1370871190
C       -1.4500096261    1.6213177096    1.7884108627
C       -3.3436305799    0.4456755736    0.5926424474
C       -1.8854477028    0.3427212990    1.0516911870
N       -2.2938547912   -2.2234900170    3.4787156832
N       -0.5775689430   -1.3078096973    2.3627646925
N       -2.7903696474   -1.3100873947    2.6624970151
N       -1.7673218381   -0.7867215889    2.0094242601
N       -0.0658737185   -2.9813313994    4.0095138931
H       -1.2429169078   -0.8725696433   -0.6383393510
H       -1.0357317686    0.8768101247   -0.8573077368
H        0.0813632608   -0.0292633603    0.1864914362
H       -2.1040265859    1.8143109108    2.6439061829
H       -0.4221645447    1.5266966141    2.1484830678
H       -1.5047633072    2.4775474850    1.1093186736
H       -4.0166444968    0.6368279477    1.4302657712
H       -3.4247615303    1.2723811578   -0.1189024612
H       -3.6679903553   -0.4734933751    0.0976266617
H        0.7997214620   -3.1737447956    3.5192174435
H       -0.5022493869   -3.8199325534    4.3754583566
21   
torsion grid (60,)
C       -0.9703371759   -2.2051917616    3.2793114050
C       -1.0118286347    0.0336118047   -0.1732325326
C       -1.3918028836    1.5975619936    1.7816491253
C       -3.3582020377    0.4997782185    0.6374454643
C       -1.8910726574    0.3421967414    1.0489339059
N       -2.3059562639   -2.4517597871    3.2136147671
N       -0.5989890362   -1.1740698647    2.5173408475
N       -2.7972287278   -1.5450609731    2.3866333001
N       -1.7791378251   -0.8029110219    1.9872335916
N       -0.1118787325   -2.9120824212    4.1033801794
H       -1.3580125139   -0.8733507067   -0.6781428242
H       -1.0645127514    0.8657930068   -0.8814990921
H        0.0296842209   -0.1084165801    0.1240067138
H       -2.0070007340    1.7990198180    2.6637286474
H       -0.3548398961    1.4735387416    2.1017322421
H       -1.4527076541    2.4605931652    1.1119608943
H       -3.9975874486    0.6963997150    1.5008450476
H       -3.4320484083    1.3450333298   -0.0527594653
H       -3.7322781867   -0.3953065998    0.1354905348
H        0.8465006688   -2.9219859164    3.7746804038
H       -0.4604152680   -3.8387655925    4.3209944737
21   
torsion grid (75,)
C       -0.9872258921   -2.2115481956    3.2876870991
C       -1.0601521441    0.0149652337   -0.2047039784
C       -1.3291345496    1.5778705056    1.7710980989
C       -3.3624359862    0.5425338893    0.6933759937
C       -1.8854276613    0.3418635616    1.0514036835
N       -2.2284266769   -2.6486178782    2.9453853717
N       -0.6636532183   -1.0618401916    2.6914494974
N       -2.7069243904   -1.7460880739    2.1066677581
N       -1.7761972224   -0.8168292489    1.9746441876
N       -0.1869861052   -2.8601235776    4.2122628290
H       -1.4549370446   -0.8754353127   -0.7028779006
H       -1.1043080561    0.8535159995   -0.9062352434
H       -0.0139725939   -0.1647205793    0.0572975094
H       -1.8969377116    1.7830288532    2.6833378462
H       -0.2808525526    1.4384506763    2.0413875011
H       -1.4109029131    2.4448728143    1.1089953541
H       -3.9617203823    0.7406582985    1.5858780852
H       -3.4419055612    1.4023594139    0.0220211016
H       -3.7781680737   -0.3332171701    0.1920169067
H        0.8030927244   -2.6921149740    4.0775002787
H       -0.4091807648   -3.8459790149    4.2915662321
21   
torsion grid (90,)
C       -1.0046810202   -2.2198965872    3.2967004278
C       -1.1096164417    0.0172772337   -0.2503698308
C       -1.2660881284    1.5509069024    1.7584148976
C       -3.3629660197    0.5697872165    0.7565709833
C       -1.8739159184    0.3377210051    1.0455947410
N       -2.0898516941   -2.7920016196    2.7108577163
N       -0.7553277100   -0.9932104112    2.8321600515
N       -2.5443866115   -1.8978855491    1.8502310419
N       -1.7534865244   -0.8427980257    1.9420002650
N       -0.2900729474   -2.8248225902    4.3166154091
H       -1.5407794491   -0.8580190512   -0.7440639291
H       -1.1668269699    0.8679275251   -0.9363496114
H       -0.0558626912   -0.1842085304   -0.0363057821
H       -1.7788985809    1.7466952185    2.7041500899
H       -0.2059540112    1.4008652084    1.9691127480
H       -1.3770935764    2.4280912468    1.1143226871
H       -3.9147022602    0.7565313942    1.6822260341
H       -3.4644812030    1.4452164694    0.1086149604
H       -3.8118761106   -0.2904405297    0.2571947431
H        0.6732421347   -2.5155652254    4.3723077238
H       -0.3756187411   -3.8348124325    4.3012007005
21   
torsion grid (105,)
C       -1.0212503776   -2.2321960815    3.3158234224
C       -1.1509209539    0.0436010778   -0.2975103771
C       -1.1987347313    1.5181897308    1.7559004597
C       -3.3508172939    0.5737233159    0.8373035742
C       -1.8486419959    0.3287234237    1.0429775400
N       -1.9242705049   -2.8893180810    2.5411490989
N       -0.8440714996   -0.9637262731    2.9375483805
N       -2.3354719623   -2.0076894748    1.6463084715
N       -1.6951652189   -0.8796465015    1.8987265319
N       -0.4128692381   -2.8056022031    4.4199062573
H       -1.6080395258   -0.8156438301   -0.7947812765
H       -1.2380644506    0.9151474263   -0.9533895178
H       -0.0884269798   -0.1667665860   -0.1417587764
H       -1.6630148234    1.6988668188    2.7286024670
H       -0.1307799782    1.3566875579    1.9137158699
H       -1.3315924603    2.4087415630    1.1346669206
H       -3.8482603814    0.7498853881    1.7955838223
H       -3.4888357162    1.4570666731    0.2068318535
H       -3.8262005072   -0.2812814518    0.3527837887
H        0.4859023274   -2.3942370122    4.6429786418
H       -0.3737862294   -3.8166159472    4.3567226437
21   
torsion grid (120,)
C       -1.0541130004   -2.2371067079    3.3273258237
C       -1.2039227478    0.0770674966   -0.3517444543
C       -1.1410429809    1.4957816050    1.7357910685
C       -3.3411904574    0.5655249651    0.9177471106
C       -1.8278168398    0.3225936731    1.0312005045
N       -1.7608139831   -2.9483941550    2.4099743700
N       -0.9446037988   -0.9453079847    3.0062014946
N       -2.1139031615   -2.0784348052    1.4793958952
N       -1.6256750744   -0.9069494021    1.8465809980
N       -0.5643150012   -2.7896421034    4.4992194742
H       -1.6755786568   -0.7759950013   -0.8447038569
H       -1.3399983552    0.9639190360   -0.9779376826
H       -0.1316683064   -0.1216341456   -0.2612872579
H       -1.5636911292    1.6688218871    2.7279163768
H       -0.0687484241    1.3218412074    1.8490758293
H       -1.2878382371    2.3949491679    1.1303084563
H       -3.7842101435    0.7047490236    1.9084220089
H       -3.5240758626    1.4676992847    0.3263077972
H       -3.8349910097   -0.2788726653    0.4316187838
H        0.2460359707   -2.3032236823    4.8646873791
H       -0.4152335158   -3.7893049283    4.4206405000
21   
torsion grid (135,)
C       -1.0714902786   -2.2398889904    3.3198115571
C       -1.2646522811    0.1074040623   -0.4099760640
C       -1.0912840376    1.4853930944    1.6954352947
C       -3.3281629271    0.5407672001    0.9960181253
C       -1.8070765121    0.3164512177    1.0113784836
N       -1.5554590187   -2.9854466603    2.2915541666
N       -1.0470580538   -0.9337196993    3.0429307920
N       -1.8525169630   -2.1234366675    1.3345533305
N       -1.5411906632   -0.9232207689    1.7913816977
N       -0.7058483592   -2.7817810918    4.5407930555
H       -1.7506173800   -0.7407484780   -0.8961836120
H       -1.4518526665    1.0073060656   -1.0032283156
H       -0.1863384156   -0.0761675912   -0.3887561956
H       -1.4612092571    1.6438666314    2.7100584114
H       -0.0132478605    1.3134983849    1.7487375453
H       -1.2711234972    2.3916463858    1.1097785799
H       -3.7106119930    0.6527377148    2.0149680964
H       -3.5627319160    1.4510868474    0.4359372609
H       -3.8375036415   -0.3024753724    0.5226262238
H       -0.0139930161   -2.2298925754    5.0343259015
H       -0.4434734856   -3.7581347529    4.4659260878
21   
torsion grid (150,)
C       -1.1140239952   -2.2427886346    3.3295980955
C       -1.3249925520    0.1253049380   -0.4334953139
C       -1.0463921837    1.4828906188    1.6714603345
C       -3.3139309904    0.5282243662    1.0850423375
C       -1.7924131082    0.3149161787    1.0153840841
N       -1.3348189215   -2.9951836638    2.2190392484
N       -1.1976789902   -0.9320534541    3.0897562008
N       -1.5718123339   -2.1334281185    1.2454287182
N       -1.4769499821   -0.9252298590    1.7731636830
N       -0.8879075978   -2.7906040258    4.5808908282
H       -1.8368741301   -0.7110250781   -0.9126084983
H       -1.5403814833    1.0382125945   -0.9962755689
H       -0.2481860926   -0.0619041150   -0.4735235861
H       -1.3663466100    1.6318148070    2.7040399077
H        0.0333704552    1.3093083802    1.6683106429
H       -1.2529557301    2.3945747990    1.1033372104
H       -3.6413822760    0.6231609775    2.1243609466
H       -3.5860801541    1.4433639241    0.5503500104
H       -3.8414607450   -0.3131152079    0.6271410925
H       -0.3565106188   -2.1848588439    5.1952498985
H       -0.5033074280   -3.7270931787    4.5286139600
21   
torsion grid (165,)
C       -1.1158847223   -2.2510276604    3.3113610129
C       -1.3906753975    0.1225478203   -0.4646177568
C       -0.9967372452    1.4799097349    1.6232776100
C       -3.2942107767    0.5264119678    1.1550089915
C       -1.7787634864    0.3118379359    1.0059176382
N       -1.0262897617   -2.9667003089    2.1586257910
N       -1.3673687068   -0.9578199092    3.0966819678
N       -1.2325128236   -2.0998072780    1.1825160325
N       -1.4239348129   -0.9224890687    1.7522642889
N       -1.0167510139   -2.8258523923    4.5666022646
H       -1.9310640256   -0.7090361173   -0.9203721144
H       -1.6351844143    1.0398598543   -1.0077962070
H       -0.3195434831   -0.0693798192   -0.5685407094
H       -1.2589935773    1.6186438919    2.6736912033
H        0.0809237044    1.3037394986    1.5555329202
H       -1.2325939940    2.3976898474    1.0767101127
H       -3.5672582655    0.6223542765    2.2091955757
H       -3.5924672387    1.4403031270    0.6323460417
H       -3.8459814595   -0.3150351690    0.7256395339
H       -0.6992524343   -2.1814289984    5.2811474745
H       -0.4860025566   -3.6894355593    4.5555795516
21   
torsion grid (180,)
C       -1.1272713966   -2.2671937943    3.3006975968
C       -1.4668721218    0.1065573339   -0.4742343291
C       -0.9576813976    1.4717408864    1.5893172615
C       -3.2852007332    0.5444776298    1.2234561639
C       -1.7810420283    0.3101171563    1.0111931453
N       -0.7075270120   -2.8815608039    2.1626215577
N       -1.5743278310   -1.0284905148    3.0823378919
N       -0.8980432481   -2.0051121236    1.1914486059
N       -1.4076977729   -0.9217287991    1.7511134072
N       -1.1464997465   -2.8945542149    4.5342674233
H       -2.0360268347   -0.7260017131   -0.8935923453
H       -1.7370747351    1.0207829711   -1.0103940792
H       -0.4052635317   -0.0930413132   -0.6360054966
H       -1.1575966414    1.5957724171    2.6560209577
H        0.1129277610    1.2911284577    1.4529902413
H       -1.2208466621    2.3993915050    1.0724730484
H       -3.5136604799    0.6628827725    2.2850547257
H       -3.5927081374    1.4512286159    0.6940401440
H       -3.8649244433   -0.2978447311    0.8342257568
H       -1.0823863890   -2.2517683249    5.3148761531
H       -0.4740544038   -3.6507315164    4.5940795737
