
  -OEChem-12102412493D

 11 10  0     0  0  0  0  0  0999 V2000
   -1.5593   -2.4341    2.9174 O   0  0  0  0  0  0  0  0  0  0  0  0
   -0.1460   -2.3511    2.7167 N   0  0  0  0  0  0  0  0  0  0  0  0
    0.2853   -0.7486    2.1671 S   0  0  0  0  0  0  0  0  0  0  0  0
    1.7405   -0.7340    2.3360 O   0  0  0  0  0  0  0  0  0  0  0  0
   -0.5607    0.2846    2.7611 O   0  0  0  0  0  0  0  0  0  0  0  0
   -0.1389   -0.8989    0.4263 C   0  0  0  0  0  0  0  0  0  0  0  0
    0.1045    0.0609   -0.0322 H   0  0  0  0  0  0  0  0  0  0  0  0
    0.4549   -1.7029   -0.0076 H   0  0  0  0  0  0  0  0  0  0  0  0
   -1.2096   -1.0919    0.3492 H   0  0  0  0  0  0  0  0  0  0  0  0
    0.2786   -2.4338    3.6476 H   0  0  0  0  0  0  0  0  0  0  0  0
   -1.8143   -3.1750    2.3413 H   0  0  0  0  0  0  0  0  0  0  0  0
  1  2  1  0  0  0  0
  1 11  1  0  0  0  0
  2  3  1  0  0  0  0
  2 10  1  0  0  0  0
  3  4  2  0  0  0  0
  3  5  2  0  0  0  0
  3  6  1  0  0  0  0
  6  7  1  0  0  0  0
  6  8  1  0  0  0  0
  6  9  1  0  0  0  0
M  END
$$$$
