
  -OEChem-12102412493D

 30 31  0     0  0  0  0  0  0999 V2000
    1.7224   -2.0547   -3.7528 C   0  0  0  0  0  0  0  0  0  0  0  0
    1.9555   -1.1753   -2.5463 N   0  3  0  0  0  0  0  0  0  0  0  0
    0.7082   -1.0309   -1.6994 C   0  0  0  0  0  0  0  0  0  0  0  0
    0.9756   -0.1282   -0.4997 C   0  0  0  0  0  0  0  0  0  0  0  0
    1.5168    1.1711   -0.9217 N   0  0  0  0  0  0  0  0  0  0  0  0
    2.7580    1.0420   -1.6904 C   0  0  0  0  0  0  0  0  0  0  0  0
    2.4955    0.1862   -2.9306 C   0  0  0  0  0  0  0  0  0  0  0  0
    1.1038    2.3538   -0.3396 C   0  0  0  0  0  0  0  0  0  0  0  0
   -0.2703    2.7438   -0.3766 C   0  0  0  0  0  0  0  0  0  0  0  0
   -0.6922    3.9386    0.1803 C   0  0  0  0  0  0  0  0  0  0  0  0
    0.2111    4.7601    0.7585 N   0  3  0  0  0  0  0  0  0  0  0  0
    1.5250    4.4604    0.8337 C   0  0  0  0  0  0  0  0  0  0  0  0
    1.9914    3.2647    0.3090 C   0  0  0  0  0  0  0  0  0  0  0  0
    3.6569    2.8938    0.5846 Cl  0  0  0  0  0  0  0  0  0  0  0  0
   -1.4602    1.8015   -1.2058 Cl  0  0  0  0  0  0  0  0  0  0  0  0
    1.3686   -3.0282   -3.4127 H   0  0  0  0  0  0  0  0  0  0  0  0
    0.9738   -1.5806   -4.3876 H   0  0  0  0  0  0  0  0  0  0  0  0
    2.6628   -2.1639   -4.2933 H   0  0  0  0  0  0  0  0  0  0  0  0
    2.6690   -1.6389   -1.9706 H   0  0  0  0  0  0  0  0  0  0  0  0
   -0.0627   -0.6132   -2.3486 H   0  0  0  0  0  0  0  0  0  0  0  0
    0.4087   -2.0302   -1.3768 H   0  0  0  0  0  0  0  0  0  0  0  0
    0.0469   -0.0074    0.0555 H   0  0  0  0  0  0  0  0  0  0  0  0
    1.6940   -0.6035    0.1846 H   0  0  0  0  0  0  0  0  0  0  0  0
    3.0970    2.0188   -2.0360 H   0  0  0  0  0  0  0  0  0  0  0  0
    3.5642    0.6025   -1.0894 H   0  0  0  0  0  0  0  0  0  0  0  0
    3.4203    0.0304   -3.4902 H   0  0  0  0  0  0  0  0  0  0  0  0
    1.7505    0.6450   -3.5836 H   0  0  0  0  0  0  0  0  0  0  0  0
   -1.7239    4.2706    0.1415 H   0  0  0  0  0  0  0  0  0  0  0  0
   -0.1138    5.6413    1.1586 H   0  0  0  0  0  0  0  0  0  0  0  0
    2.1726    5.1618    1.3486 H   0  0  0  0  0  0  0  0  0  0  0  0
  1  2  1  0  0  0  0
  1 16  1  0  0  0  0
  1 17  1  0  0  0  0
  1 18  1  0  0  0  0
  2  3  1  0  0  0  0
  2  7  1  0  0  0  0
  2 19  1  0  0  0  0
  3  4  1  0  0  0  0
  3 20  1  0  0  0  0
  3 21  1  0  0  0  0
  4  5  1  0  0  0  0
  4 22  1  0  0  0  0
  4 23  1  0  0  0  0
  5  6  1  0  0  0  0
  5  8  1  0  0  0  0
  6  7  1  0  0  0  0
  6 24  1  0  0  0  0
  6 25  1  0  0  0  0
  7 26  1  0  0  0  0
  7 27  1  0  0  0  0
  8  9  2  0  0  0  0
  8 13  1  0  0  0  0
  9 10  1  0  0  0  0
  9 15  1  0  0  0  0
 10 11  2  0  0  0  0
 10 28  1  0  0  0  0
 11 12  1  0  0  0  0
 11 29  1  0  0  0  0
 12 13  2  0  0  0  0
 12 30  1  0  0  0  0
 13 14  1  0  0  0  0
M  CHG  2   2   1  11   1
M  END
$$$$
