17
-1 1 BrC8H4O4
C                     0.872815778848     1.280774476997     1.510136062340
C                    -0.138197713670     0.492913955865     0.981927140130
C                    -1.364779840452     0.277424650555     1.637154849225
C                    -1.490231908244     0.914207009538     2.857503718266
C                    -0.484385391972     1.712897533877     3.409035676235
C                     0.728304092037     1.926233008563     2.761713959337
C                     1.898933497112     2.800266709928     3.306497685471
O                     1.687760298719     3.335927653788     4.422578487650
O                     2.904120113527     2.851534048985     2.549247356589
O                    -0.922087707063     2.200114600730     4.629961935823
C                    -2.230986619280     1.684739384777     4.831669857868
O                    -2.588765601584     0.867705630943     3.700448618345
Br                    0.117088649524    -0.368227305865    -0.740402379557
H                     1.816689833384     1.443393269138     1.000287837764
H                    -2.153620530072    -0.339142043583     1.221769397637
H                    -2.249810188220     1.064917816867     5.738751866688
H                    -2.947490191813     2.513754827224     4.912965627625
