16
1 1 C3H8N5
C                     2.957850640206    -0.421624143979     3.088499852637
N                     1.960160543953     0.552486408446     2.641444272138
C                     1.065901197462     0.524092399770     1.640263569542
N                     0.365323408879     1.644027114907     1.651955290211
N                     0.844914481781     2.379518052602     2.692600573942
N                     1.792699124154     1.740502798628     3.291375748162
C                     0.778448739308    -0.542608818382     0.629687611326
N                    -0.109368118065     0.119266298414    -0.409508430653
H                     2.464786879565    -1.316799416845     3.473475379090
H                     3.626797723580    -0.677556521419     2.264009605605
H                     3.529902307078     0.050259954985     3.886061626110
H                     1.667991725116    -0.935738335930     0.134161361578
H                     0.216861721114    -1.374819480453     1.061200394588
H                     0.444055928896     0.576339161177    -1.144463407086
H                    -0.633411637737     0.882491069755     0.073476155158
H                    -0.758089117095    -0.538754429165    -0.857089722251
