
  -OEChem-12102412493D

 38 39  0     1  0  0  0  0  0999 V2000
   -3.4095    3.2866   -3.3554 C   0  0  0  0  0  0  0  0  0  0  0  0
   -3.0741    2.4885   -2.1168 N   0  3  0  0  0  0  0  0  0  0  0  0
   -1.7282    2.8720   -1.5418 C   0  0  0  0  0  0  0  0  0  0  0  0
   -1.4147    2.0637   -0.2800 C   0  0  0  0  0  0  0  0  0  0  0  0
   -1.5164    0.6316   -0.5479 N   0  0  0  0  0  0  0  0  0  0  0  0
   -2.8166    0.2217   -1.0928 C   0  0  0  0  0  0  0  0  0  0  0  0
   -3.1347    0.9930   -2.3665 C   0  0  0  0  0  0  0  0  0  0  0  0
   -0.6653   -0.3466   -0.1052 C   0  0  0  0  0  0  0  0  0  0  0  0
   -0.9086   -1.5431   -0.2404 O   0  0  0  0  0  0  0  0  0  0  0  0
    0.6830    0.0432    0.5287 C   0  0  2  0  0  0  0  0  0  0  0  0
    0.5913    0.8299    1.2822 H   0  0  0  0  0  0  0  0  0  0  0  0
    1.7341    0.4107   -0.5336 C   0  0  0  0  0  0  0  0  0  0  0  0
    3.1385    0.5548    0.0700 C   0  0  0  0  0  0  0  0  0  0  0  0
    3.5485   -0.7221    0.8110 C   0  0  0  0  0  0  0  0  0  0  0  0
    2.5327   -1.0835    1.8858 C   0  0  0  0  0  0  0  0  0  0  0  0
    1.1420   -1.1929    1.2756 N   0  3  0  0  0  0  0  0  0  0  0  0
   -3.3884    4.3478   -3.1064 H   0  0  0  0  0  0  0  0  0  0  0  0
   -2.6695    3.0621   -4.1235 H   0  0  0  0  0  0  0  0  0  0  0  0
   -4.4048    2.9996   -3.6952 H   0  0  0  0  0  0  0  0  0  0  0  0
   -3.7887    2.7117   -1.4131 H   0  0  0  0  0  0  0  0  0  0  0  0
   -0.9935    2.6844   -2.3277 H   0  0  0  0  0  0  0  0  0  0  0  0
   -1.7520    3.9409   -1.3205 H   0  0  0  0  0  0  0  0  0  0  0  0
   -0.4104    2.3400    0.0392 H   0  0  0  0  0  0  0  0  0  0  0  0
   -2.1024    2.3448    0.5301 H   0  0  0  0  0  0  0  0  0  0  0  0
   -2.7848   -0.8445   -1.3182 H   0  0  0  0  0  0  0  0  0  0  0  0
   -3.5987    0.3765   -0.3369 H   0  0  0  0  0  0  0  0  0  0  0  0
   -4.1386    0.7569   -2.7247 H   0  0  0  0  0  0  0  0  0  0  0  0
   -2.4126    0.7805   -3.1577 H   0  0  0  0  0  0  0  0  0  0  0  0
    1.7305   -0.3640   -1.3099 H   0  0  0  0  0  0  0  0  0  0  0  0
    1.4269    1.3415   -1.0191 H   0  0  0  0  0  0  0  0  0  0  0  0
    3.8516    0.7678   -0.7301 H   0  0  0  0  0  0  0  0  0  0  0  0
    3.1657    1.4107    0.7551 H   0  0  0  0  0  0  0  0  0  0  0  0
    3.6598   -1.5562    0.1078 H   0  0  0  0  0  0  0  0  0  0  0  0
    4.5191   -0.5936    1.2976 H   0  0  0  0  0  0  0  0  0  0  0  0
    2.7381   -2.0464    2.3577 H   0  0  0  0  0  0  0  0  0  0  0  0
    2.4675   -0.3180    2.6630 H   0  0  0  0  0  0  0  0  0  0  0  0
    0.4587   -1.4246    2.0066 H   0  0  0  0  0  0  0  0  0  0  0  0
    1.0834   -1.9838    0.6172 H   0  0  0  0  0  0  0  0  0  0  0  0
  1  2  1  0  0  0  0
  1 17  1  0  0  0  0
  1 18  1  0  0  0  0
  1 19  1  0  0  0  0
  2  3  1  0  0  0  0
  2  7  1  0  0  0  0
  2 20  1  0  0  0  0
  3  4  1  0  0  0  0
  3 21  1  0  0  0  0
  3 22  1  0  0  0  0
  4  5  1  0  0  0  0
  4 23  1  0  0  0  0
  4 24  1  0  0  0  0
  5  6  1  0  0  0  0
  5  8  1  0  0  0  0
  6  7  1  0  0  0  0
  6 25  1  0  0  0  0
  6 26  1  0  0  0  0
  7 27  1  0  0  0  0
  7 28  1  0  0  0  0
  8  9  2  0  0  0  0
  8 10  1  0  0  0  0
 10 11  1  0  0  0  0
 10 12  1  0  0  0  0
 10 16  1  0  0  0  0
 12 13  1  0  0  0  0
 12 29  1  0  0  0  0
 12 30  1  0  0  0  0
 13 14  1  0  0  0  0
 13 31  1  0  0  0  0
 13 32  1  0  0  0  0
 14 15  1  0  0  0  0
 14 33  1  0  0  0  0
 14 34  1  0  0  0  0
 15 16  1  0  0  0  0
 15 35  1  0  0  0  0
 15 36  1  0  0  0  0
 16 37  1  0  0  0  0
 16 38  1  0  0  0  0
M  CHG  2   2   1  16   1
M  END
$$$$
