
  -OEChem-12122420533D

 12 11  0     0  0  0  0  0  0999 V2000
   -0.1334   -1.7707   -0.9509 C   0  0  0  0  0  0  0  0  0  0  0  0
    0.3132   -2.3408    0.2057 C   0  0  0  0  0  0  0  0  0  0  0  0
    1.3382   -1.5280    1.0897 C   0  0  0  0  0  0  0  0  0  0  0  0
    1.7555   -2.0558    2.1634 O   0  0  0  0  0  0  0  0  0  0  0  0
    1.6836   -0.3714    0.6555 O   0  5  0  0  0  0  0  0  0  0  0  0
   -0.0419   -3.5422    0.6730 O   0  0  0  0  0  0  0  0  0  0  0  0
   -1.1862   -4.7537   -0.1293 P   0  0  0  0  0  0  0  0  0  0  0  0
   -0.4793   -5.1197   -1.4472 O   0  0  0  0  0  0  0  0  0  0  0  0
   -1.1812   -5.8494    0.9507 O   0  5  0  0  0  0  0  0  0  0  0  0
   -2.5117   -3.9845   -0.2839 O   0  5  0  0  0  0  0  0  0  0  0  0
   -0.8471   -2.2963   -1.5787 H   0  0  0  0  0  0  0  0  0  0  0  0
    0.2353   -0.7832   -1.2147 H   0  0  0  0  0  0  0  0  0  0  0  0
  1  2  2  0  0  0  0
  1 11  1  0  0  0  0
  1 12  1  0  0  0  0
  2  3  1  0  0  0  0
  2  6  1  0  0  0  0
  3  4  2  0  0  0  0
  3  5  1  0  0  0  0
  6  7  1  0  0  0  0
  7  8  2  0  0  0  0
  7  9  1  0  0  0  0
  7 10  1  0  0  0  0
M  CHG  3   5  -1   9  -1  10  -1
M  END
$$$$
