
  -OEChem-12122420533D

 25 25  0     0  0  0  0  0  0999 V2000
    2.7667    2.6343    3.6983 C   0  0  0  0  0  0  0  0  0  0  0  0
    2.2983    1.2175    3.3480 C   0  0  0  0  0  0  0  0  0  0  0  0
    3.3960    0.1862    3.5655 C   0  0  0  0  0  0  0  0  0  0  0  0
    2.8921   -1.1052    3.2058 O   0  0  0  0  0  0  0  0  0  0  0  0
    3.4067   -2.1650    3.9464 C   0  0  0  0  0  0  0  0  0  0  0  0
    4.1740   -3.0969    3.2472 C   0  0  0  0  0  0  0  0  0  0  0  0
    4.6904   -4.2383    3.8752 C   0  0  0  0  0  0  0  0  0  0  0  0
    4.4377   -4.4324    5.2429 C   0  0  0  0  0  0  0  0  0  0  0  0
    3.6665   -3.4912    5.9311 C   0  0  0  0  0  0  0  0  0  0  0  0
    3.1055   -2.3271    5.3351 C   0  0  0  0  0  0  0  0  0  0  0  0
    2.1179   -1.2210    6.2606 S   0  5  0  0  0  0  0  0  0  0  0  0
    5.0163   -5.6292    5.9717 C   0  0  0  0  0  0  0  0  0  0  0  0
    1.9680    3.3699    3.5436 H   0  0  0  0  0  0  0  0  0  0  0  0
    3.0721    2.6908    4.7496 H   0  0  0  0  0  0  0  0  0  0  0  0
    3.6240    2.9411    3.0842 H   0  0  0  0  0  0  0  0  0  0  0  0
    1.9586    1.1743    2.3044 H   0  0  0  0  0  0  0  0  0  0  0  0
    1.4592    0.9219    3.9856 H   0  0  0  0  0  0  0  0  0  0  0  0
    4.2786    0.4095    2.9396 H   0  0  0  0  0  0  0  0  0  0  0  0
    3.6931    0.1922    4.6180 H   0  0  0  0  0  0  0  0  0  0  0  0
    4.3476   -2.9154    2.1875 H   0  0  0  0  0  0  0  0  0  0  0  0
    5.2785   -4.9606    3.3102 H   0  0  0  0  0  0  0  0  0  0  0  0
    3.4543   -3.6470    6.9876 H   0  0  0  0  0  0  0  0  0  0  0  0
    6.0125   -5.4111    6.3818 H   0  0  0  0  0  0  0  0  0  0  0  0
    4.3799   -5.9309    6.8111 H   0  0  0  0  0  0  0  0  0  0  0  0
    5.1232   -6.4924    5.3034 H   0  0  0  0  0  0  0  0  0  0  0  0
  1  2  1  0  0  0  0
  1 13  1  0  0  0  0
  1 14  1  0  0  0  0
  1 15  1  0  0  0  0
  2  3  1  0  0  0  0
  2 16  1  0  0  0  0
  2 17  1  0  0  0  0
  3  4  1  0  0  0  0
  3 18  1  0  0  0  0
  3 19  1  0  0  0  0
  4  5  1  0  0  0  0
  5  6  2  0  0  0  0
  5 10  1  0  0  0  0
  6  7  1  0  0  0  0
  6 20  1  0  0  0  0
  7  8  2  0  0  0  0
  7 21  1  0  0  0  0
  8  9  1  0  0  0  0
  8 12  1  0  0  0  0
  9 10  2  0  0  0  0
  9 22  1  0  0  0  0
 10 11  1  0  0  0  0
 12 23  1  0  0  0  0
 12 24  1  0  0  0  0
 12 25  1  0  0  0  0
M  CHG  1  11  -1
M  END
$$$$
