21
1 1 C8Cl3H8N2
C                     0.240794305519     1.876310255880    -3.812241182968
C                     0.189717967683     1.799700138652    -2.416670843715
C                     0.097139727036     0.540758656100    -1.791258428615
C                     0.063587605834    -0.581926870347    -2.639399399102
C                     0.127050415807    -0.406090570301    -4.034809762792
N                     0.211588269122     0.794822529977    -4.585279476888
Cl                    0.092728246511    -1.763018405216    -5.108876688500
Cl                   -0.042322021653    -2.206073776426    -1.979464605800
C                    -0.010163784975     0.460591203283    -0.294639970575
H                     0.202304754562     1.436758096014     0.135542424137
C                    -1.224850145647    -0.189797799357     0.422672978502
C                    -0.234865509886    -0.907879690547     1.365544453895
N                     0.930736505309    -0.528134752732     0.436577887603
Cl                    0.228725339708     3.290032024346    -1.511021481649
H                     0.309627099990     2.840913552327    -4.308816992212
H                    -1.901611186716     0.522115975806     0.893357363936
H                    -1.790638275258    -0.874400992683    -0.206391325571
H                    -0.089663426735    -0.429502327912     2.333308509947
H                    -0.320268610275    -1.987186820043     1.478930005967
H                     1.210264624693    -1.313883253531    -0.162908177991
H                     1.766103317851    -0.120620441729     0.868813468725
