25
-1 1 C10H13OS
C                     0.031721654896    -0.042686492457     2.639762367042
C                     1.090479589735    -0.480362877864     1.620097245181
C                     1.898280852275    -1.685462722398     2.088178877796
O                     2.633157648066    -1.304864920255     3.256656346702
C                     3.229748209424    -2.366729315824     3.932909218895
C                     4.623230246067    -2.423780794633     3.883489142228
C                     5.341043590406    -3.415560881044     4.564352777792
C                     4.631845171680    -4.376728071109     5.303831383276
C                     3.236571753760    -4.312806686750     5.338419284200
C                     2.463227182654    -3.315044072052     4.678777305816
S                     0.721959283740    -3.287694828527     4.814927479396
C                     5.370865504408    -5.444466682974     6.085940018009
H                    -0.537572289611     0.822068340524     2.272801027694
H                    -0.660943913075    -0.861798129401     2.854884359866
H                     0.506350934725     0.219483386726     3.588315528186
H                     1.778308107576     0.351000873124     1.411025705830
H                     0.611974467845    -0.743908575461     0.665698067594
H                     1.232767552195    -2.521562572378     2.330369681973
H                     2.608268004342    -2.001125421856     1.304704595436
H                     5.139012203500    -1.663196506445     3.299054321160
H                     6.429101241883    -3.440825965416     4.517709442119
H                     2.683754355553    -5.054591769316     5.912587760458
H                     5.656608217453    -5.088299876084     7.085723618684
H                     4.751554306752    -6.337573132243     6.224372315936
H                     6.292765263601    -5.750210754676     5.575851488769
