14
-1 1 C6Cl2H2NO3
C                     1.625211070867    -0.618795980141     2.863275364143
C                     1.387427423836    -0.044509158691     1.609901635489
C                     0.197472631072    -0.421821558829     0.944317833129
C                    -0.633683751242    -1.343051930017     1.613509147661
N                    -0.409757392655    -1.883940483247     2.793807213054
C                     0.708896634255    -1.517287384332     3.398937207604
Cl                    1.015018136311    -2.245398559525     4.992975988896
Cl                   -2.155860754168    -1.847744497449     0.800228609653
O                    -0.134518667322     0.073261954807    -0.276406979278
C                     2.467932255988     0.966952875014     1.060618061527
O                     2.230119260789     1.463346626131    -0.061612711192
O                     3.434979351004     1.130943998291     1.849476155786
H                     2.537055150697    -0.329607381519     3.373406878447
H                    -0.986049203055    -0.327267068846    -0.527450246135
