
  -OEChem-12122420533D

 17 18  0     1  0  0  0  0  0999 V2000
   -1.3795   -0.3953   -0.8855 C   0  0  0  0  0  0  0  0  0  0  0  0
   -0.8172   -0.0399    0.4693 C   0  0  2  0  0  0  0  0  0  0  0  0
   -1.5170    0.2051    1.2608 H   0  0  0  0  0  0  0  0  0  0  0  0
    0.4449    0.7895    0.2719 C   0  0  1  0  0  0  0  0  0  0  0  0
    0.6430    1.6441    0.9095 H   0  0  0  0  0  0  0  0  0  0  0  0
    0.5154   -0.6072    0.8666 C   0  0  0  0  0  0  0  0  0  0  0  0
    0.9506   -1.4097    0.2597 H   0  0  0  0  0  0  0  0  0  0  0  0
    0.6845   -0.7403    2.2384 O   0  0  0  0  0  0  0  0  0  0  0  0
    0.6863    0.9444   -1.2121 C   0  0  0  0  0  0  0  0  0  0  0  0
   -0.2172   -0.1217   -1.8495 N   0  3  0  0  0  0  0  0  0  0  0  0
   -2.2018    0.2656   -1.1654 H   0  0  0  0  0  0  0  0  0  0  0  0
   -1.6854   -1.4359   -1.0131 H   0  0  0  0  0  0  0  0  0  0  0  0
    1.6270   -0.6638    2.4629 H   0  0  0  0  0  0  0  0  0  0  0  0
    0.3533    1.9181   -1.5762 H   0  0  0  0  0  0  0  0  0  0  0  0
    1.7086    0.7597   -1.5500 H   0  0  0  0  0  0  0  0  0  0  0  0
    0.3179   -0.9834   -1.9913 H   0  0  0  0  0  0  0  0  0  0  0  0
   -0.5495    0.1651   -2.7762 H   0  0  0  0  0  0  0  0  0  0  0  0
  1  2  1  0  0  0  0
  1 10  1  0  0  0  0
  1 11  1  0  0  0  0
  1 12  1  0  0  0  0
  2  3  1  0  0  0  0
  2  4  1  0  0  0  0
  2  6  1  0  0  0  0
  4  5  1  0  0  0  0
  4  6  1  0  0  0  0
  4  9  1  0  0  0  0
  6  7  1  0  0  0  0
  6  8  1  0  0  0  0
  8 13  1  0  0  0  0
  9 10  1  0  0  0  0
  9 14  1  0  0  0  0
  9 15  1  0  0  0  0
 10 16  1  0  0  0  0
 10 17  1  0  0  0  0
M  CHG  1  10   1
M  END
$$$$
