
  -OEChem-12122420533D

 38 39  0     1  0  0  0  0  0999 V2000
   -1.3572   -3.0865    1.8246 C   0  0  0  0  0  0  0  0  0  0  0  0
   -0.7409   -2.1362    0.8190 C   0  0  0  0  0  0  0  0  0  0  0  0
   -0.2173   -2.5402   -0.2241 O   0  0  0  0  0  0  0  0  0  0  0  0
   -0.7773   -0.7961    1.1307 N   0  0  0  0  0  0  0  0  0  0  0  0
   -1.3034   -0.2320    2.3869 C   0  0  0  0  0  0  0  0  0  0  0  0
   -0.6783    1.1631    2.4280 C   0  0  0  0  0  0  0  0  0  0  0  0
   -0.6477    1.5592    0.9465 C   0  0  0  0  0  0  0  0  0  0  0  0
   -0.3194    0.2541    0.1803 C   0  0  2  0  0  0  0  0  0  0  0  0
   -1.0742    0.1378   -1.1621 C   0  0  0  0  0  0  0  0  0  0  0  0
   -1.0695    1.3716   -2.0769 C   0  0  0  0  0  0  0  0  0  0  0  0
    0.3020    2.0121   -2.3765 C   0  0  0  0  0  0  0  0  0  0  0  0
    1.5191    1.0989   -2.2546 C   0  0  0  0  0  0  0  0  0  0  0  0
    1.9939    0.9728   -0.8137 N   0  3  1  0  0  0  0  0  0  0  0  0
    1.9004    1.9051   -0.3986 H   0  0  0  0  0  0  0  0  0  0  0  0
    1.2014    0.0068    0.0480 C   0  0  0  0  0  0  0  0  0  0  0  0
    3.4539    0.6071   -0.7601 C   0  0  0  0  0  0  0  0  0  0  0  0
   -0.7369   -3.1525    2.7250 H   0  0  0  0  0  0  0  0  0  0  0  0
   -1.4111   -4.0739    1.3671 H   0  0  0  0  0  0  0  0  0  0  0  0
   -2.3576   -2.7688    2.1320 H   0  0  0  0  0  0  0  0  0  0  0  0
   -2.3988   -0.1729    2.3588 H   0  0  0  0  0  0  0  0  0  0  0  0
   -1.0175   -0.8457    3.2423 H   0  0  0  0  0  0  0  0  0  0  0  0
   -1.2536    1.8621    3.0382 H   0  0  0  0  0  0  0  0  0  0  0  0
    0.3329    1.1104    2.8449 H   0  0  0  0  0  0  0  0  0  0  0  0
   -1.6360    1.9128    0.6401 H   0  0  0  0  0  0  0  0  0  0  0  0
    0.0540    2.3742    0.7385 H   0  0  0  0  0  0  0  0  0  0  0  0
   -0.7041   -0.7395   -1.6952 H   0  0  0  0  0  0  0  0  0  0  0  0
   -2.1169   -0.0888   -0.9184 H   0  0  0  0  0  0  0  0  0  0  0  0
   -1.5260    1.0603   -3.0213 H   0  0  0  0  0  0  0  0  0  0  0  0
   -1.7268    2.1477   -1.6751 H   0  0  0  0  0  0  0  0  0  0  0  0
    0.3018    2.4039   -3.3979 H   0  0  0  0  0  0  0  0  0  0  0  0
    0.4683    2.8919   -1.7408 H   0  0  0  0  0  0  0  0  0  0  0  0
    1.3413    0.0845   -2.6168 H   0  0  0  0  0  0  0  0  0  0  0  0
    2.3621    1.5177   -2.8070 H   0  0  0  0  0  0  0  0  0  0  0  0
    1.6613    0.0535    1.0371 H   0  0  0  0  0  0  0  0  0  0  0  0
    1.3603   -0.9870   -0.3711 H   0  0  0  0  0  0  0  0  0  0  0  0
    3.7679    0.5389    0.2813 H   0  0  0  0  0  0  0  0  0  0  0  0
    3.5841   -0.3572   -1.2513 H   0  0  0  0  0  0  0  0  0  0  0  0
    4.0318    1.3737   -1.2765 H   0  0  0  0  0  0  0  0  0  0  0  0
  1  2  1  0  0  0  0
  1 17  1  0  0  0  0
  1 18  1  0  0  0  0
  1 19  1  0  0  0  0
  2  3  2  0  0  0  0
  2  4  1  0  0  0  0
  4  5  1  0  0  0  0
  4  8  1  0  0  0  0
  5  6  1  0  0  0  0
  5 20  1  0  0  0  0
  5 21  1  0  0  0  0
  6  7  1  0  0  0  0
  6 22  1  0  0  0  0
  6 23  1  0  0  0  0
  7  8  1  0  0  0  0
  7 24  1  0  0  0  0
  7 25  1  0  0  0  0
  8  9  1  0  0  0  0
  8 15  1  0  0  0  0
  9 10  1  0  0  0  0
  9 26  1  0  0  0  0
  9 27  1  0  0  0  0
 10 11  1  0  0  0  0
 10 28  1  0  0  0  0
 10 29  1  0  0  0  0
 11 12  1  0  0  0  0
 11 30  1  0  0  0  0
 11 31  1  0  0  0  0
 12 13  1  0  0  0  0
 12 32  1  0  0  0  0
 12 33  1  0  0  0  0
 13 14  1  0  0  0  0
 13 15  1  0  0  0  0
 13 16  1  0  0  0  0
 15 34  1  0  0  0  0
 15 35  1  0  0  0  0
 16 36  1  0  0  0  0
 16 37  1  0  0  0  0
 16 38  1  0  0  0  0
M  CHG  1  13   1
M  END
$$$$
