
  -OEChem-12102412493D

 25 25  0     0  0  0  0  0  0999 V2000
    0.0317   -0.0427    2.6398 C   0  0  0  0  0  0  0  0  0  0  0  0
    1.0905   -0.4804    1.6201 C   0  0  0  0  0  0  0  0  0  0  0  0
    1.8983   -1.6855    2.0882 C   0  0  0  0  0  0  0  0  0  0  0  0
    2.6332   -1.3049    3.2567 O   0  0  0  0  0  0  0  0  0  0  0  0
    3.2297   -2.3667    3.9329 C   0  0  0  0  0  0  0  0  0  0  0  0
    4.6232   -2.4238    3.8835 C   0  0  0  0  0  0  0  0  0  0  0  0
    5.3410   -3.4156    4.5644 C   0  0  0  0  0  0  0  0  0  0  0  0
    4.6318   -4.3767    5.3038 C   0  0  0  0  0  0  0  0  0  0  0  0
    3.2366   -4.3128    5.3384 C   0  0  0  0  0  0  0  0  0  0  0  0
    2.4632   -3.3150    4.6788 C   0  0  0  0  0  0  0  0  0  0  0  0
    0.7220   -3.2877    4.8149 S   0  5  0  0  0  0  0  0  0  0  0  0
    5.3709   -5.4445    6.0859 C   0  0  0  0  0  0  0  0  0  0  0  0
   -0.5376    0.8221    2.2728 H   0  0  0  0  0  0  0  0  0  0  0  0
   -0.6609   -0.8618    2.8549 H   0  0  0  0  0  0  0  0  0  0  0  0
    0.5064    0.2195    3.5883 H   0  0  0  0  0  0  0  0  0  0  0  0
    1.7783    0.3510    1.4110 H   0  0  0  0  0  0  0  0  0  0  0  0
    0.6120   -0.7439    0.6657 H   0  0  0  0  0  0  0  0  0  0  0  0
    1.2328   -2.5216    2.3304 H   0  0  0  0  0  0  0  0  0  0  0  0
    2.6083   -2.0011    1.3047 H   0  0  0  0  0  0  0  0  0  0  0  0
    5.1390   -1.6632    3.2991 H   0  0  0  0  0  0  0  0  0  0  0  0
    6.4291   -3.4408    4.5177 H   0  0  0  0  0  0  0  0  0  0  0  0
    2.6838   -5.0546    5.9126 H   0  0  0  0  0  0  0  0  0  0  0  0
    5.6566   -5.0883    7.0857 H   0  0  0  0  0  0  0  0  0  0  0  0
    4.7516   -6.3376    6.2244 H   0  0  0  0  0  0  0  0  0  0  0  0
    6.2928   -5.7502    5.5759 H   0  0  0  0  0  0  0  0  0  0  0  0
  1  2  1  0  0  0  0
  1 13  1  0  0  0  0
  1 14  1  0  0  0  0
  1 15  1  0  0  0  0
  2  3  1  0  0  0  0
  2 16  1  0  0  0  0
  2 17  1  0  0  0  0
  3  4  1  0  0  0  0
  3 18  1  0  0  0  0
  3 19  1  0  0  0  0
  4  5  1  0  0  0  0
  5  6  2  0  0  0  0
  5 10  1  0  0  0  0
  6  7  1  0  0  0  0
  6 20  1  0  0  0  0
  7  8  2  0  0  0  0
  7 21  1  0  0  0  0
  8  9  1  0  0  0  0
  8 12  1  0  0  0  0
  9 10  2  0  0  0  0
  9 22  1  0  0  0  0
 10 11  1  0  0  0  0
 12 23  1  0  0  0  0
 12 24  1  0  0  0  0
 12 25  1  0  0  0  0
M  CHG  1  11  -1
M  END
$$$$
