
  -OEChem-12122420533D

 15 15  0     0  0  0  0  0  0999 V2000
   -0.8430    0.4311   -3.2325 C   0  0  0  0  0  0  0  0  0  0  0  0
   -0.3304    0.8184   -2.0189 C   0  0  0  0  0  0  0  0  0  0  0  0
   -0.6583   -0.1128   -0.9848 C   0  0  0  0  0  0  0  0  0  0  0  0
   -1.4086   -1.1811   -1.4279 C   0  0  0  0  0  0  0  0  0  0  0  0
   -1.7240   -1.0494   -3.1330 S   0  0  0  0  0  0  0  0  0  0  0  0
   -1.8979   -2.3235   -0.6117 C   0  0  0  0  0  0  0  0  0  0  0  0
   -2.9278   -1.8256    0.4161 N   0  3  0  0  0  0  0  0  0  0  0  0
   -0.1574    0.0870    0.8378 Br  0  0  0  0  0  0  0  0  0  0  0  0
    0.6900    2.3830   -1.7636 Br  0  0  0  0  0  0  0  0  0  0  0  0
   -0.7388    0.9374   -4.1837 H   0  0  0  0  0  0  0  0  0  0  0  0
   -2.3907   -3.0913   -1.2089 H   0  0  0  0  0  0  0  0  0  0  0  0
   -1.1015   -2.7822   -0.0208 H   0  0  0  0  0  0  0  0  0  0  0  0
   -3.2923   -2.5838    1.0077 H   0  0  0  0  0  0  0  0  0  0  0  0
   -3.7185   -1.3623   -0.0484 H   0  0  0  0  0  0  0  0  0  0  0  0
   -2.4667   -1.1293    1.0255 H   0  0  0  0  0  0  0  0  0  0  0  0
  1  2  2  0  0  0  0
  1  5  1  0  0  0  0
  1 10  1  0  0  0  0
  2  3  1  0  0  0  0
  2  9  1  0  0  0  0
  3  4  2  0  0  0  0
  3  8  1  0  0  0  0
  4  5  1  0  0  0  0
  4  6  1  0  0  0  0
  6  7  1  0  0  0  0
  6 11  1  0  0  0  0
  6 12  1  0  0  0  0
  7 13  1  0  0  0  0
  7 14  1  0  0  0  0
  7 15  1  0  0  0  0
M  CHG  1   7   1
M  END
$$$$
