21
1 1 C8Cl3H8N2
C                     2.092187956095     1.463544109774    -3.304293466593
C                     1.381652994487     1.442011984324    -2.104116277186
C                     0.493440264935     0.386976414280    -1.824508183250
C                     0.298382724567    -0.555615586754    -2.850980402620
C                     1.070522380332    -0.454843656137    -4.031352542239
N                     1.945038474350     0.517374966049    -4.228001419023
Cl                    0.901818896951    -1.620049217057    -5.298551771662
Cl                   -0.928991622834    -1.779889357875    -2.725055451489
C                    -0.269657874300     0.295322889641    -0.522488982239
H                    -1.162268082349     0.926925783796    -0.548058840933
C                    -0.558652465973    -1.060744249125     0.186821891937
C                    -0.162369427964    -0.405209760126     1.522435775874
N                     0.513801913896     0.724497191183     0.745039739374
Cl                    1.594236132641     2.810438130929    -1.019812979266
H                     2.788488156570     2.270096540556    -3.520605139746
H                    -1.577576924951    -1.431371199012     0.109813632359
H                     0.138870774164    -1.843902522730    -0.110200212187
H                    -0.995844511354     0.011556716979     2.087526439337
H                     0.527938824870    -0.926436871679     2.183943193885
H                     1.523539216193     0.580712757905     0.639976753090
H                     0.372045811575     1.685907114836     1.069065581930
