25
-1 1 C10H13OS
C                     2.766699512467     2.634270386030     3.698262873043
C                     2.298349698133     1.217468732112     3.347976860122
C                     3.395990865314     0.186164833761     3.565458184248
O                     2.892143827813    -1.105228319524     3.205841814000
C                     3.406742650838    -2.164965671419     3.946361766149
C                     4.174035392610    -3.096904520269     3.247166664700
C                     4.690430645262    -4.238343986518     3.875209677924
C                     4.437705610895    -4.432445885761     5.242927579043
C                     3.666518098394    -3.491227655225     5.931055044966
C                     3.105549349686    -2.327090899976     5.335098268569
S                     2.117895506700    -1.220969985500     6.260582478392
C                     5.016325277137    -5.629200489263     5.971658553044
H                     1.967951455981     3.369867947641     3.543646542103
H                     3.072149414558     2.690770139386     4.749600774994
H                     3.624031328000     2.941083422156     3.084168420748
H                     1.958611483504     1.174259243234     2.304395097964
H                     1.459190336024     0.921890958976     3.985640346786
H                     4.278565275188     0.409497550769     2.939619109438
H                     3.693125805894     0.192177900865     4.617970960149
H                     4.347567829708    -2.915420835739     2.187540217765
H                     5.278456521092    -4.960551136863     3.310203963278
H                     3.454332933254    -3.646999396979     6.987633944470
H                     6.012543694525    -5.411112098333     6.381751258838
H                     4.379888058115    -5.930943113402     6.811093436559
H                     5.123222910227    -6.492382348277     5.303372978226
