
  -OEChem-12102412493D

 31 32  0     0  0  0  0  0  0999 V2000
   -5.9518   -4.3707   -0.0216 C   0  0  0  0  0  0  0  0  0  0  0  0
   -5.1050   -4.0659    1.1964 C   0  0  0  0  0  0  0  0  0  0  0  0
   -5.4705   -4.5654    2.4596 C   0  0  0  0  0  0  0  0  0  0  0  0
   -4.6652   -4.3092    3.5752 C   0  0  0  0  0  0  0  0  0  0  0  0
   -3.4971   -3.5568    3.4464 C   0  0  0  0  0  0  0  0  0  0  0  0
   -3.1168   -3.0452    2.1921 C   0  0  0  0  0  0  0  0  0  0  0  0
   -3.9366   -3.3103    1.0746 C   0  0  0  0  0  0  0  0  0  0  0  0
   -1.9184   -2.2940    2.1735 N   0  0  0  0  0  0  0  0  0  0  0  0
   -1.6359   -1.8434    1.0072 N   0  0  0  0  0  0  0  0  0  0  0  0
   -0.5016   -1.0963    0.8232 C   0  0  0  0  0  0  0  0  0  0  0  0
   -0.2895   -0.6451   -0.5084 C   0  0  0  0  0  0  0  0  0  0  0  0
    0.8238    0.1277   -0.8540 C   0  0  0  0  0  0  0  0  0  0  0  0
    1.8212    0.5071    0.1401 C   0  0  0  0  0  0  0  0  0  0  0  0
    1.5481    0.0307    1.4181 N   0  0  0  0  0  0  0  0  0  0  0  0
    0.4670   -0.7489    1.8723 C   0  0  0  0  0  0  0  0  0  0  0  0
    0.4344   -1.0576    3.0658 O   0  0  0  0  0  0  0  0  0  0  0  0
    2.8351    1.1861   -0.0708 O   0  5  0  0  0  0  0  0  0  0  0  0
    1.0387    0.5809   -2.1881 C   0  0  0  0  0  0  0  0  0  0  0  0
    1.1925    0.9406   -3.2909 N   0  0  0  0  0  0  0  0  0  0  0  0
   -1.3005   -1.0164   -1.5695 C   0  0  0  0  0  0  0  0  0  0  0  0
   -5.6262   -5.3003   -0.5059 H   0  0  0  0  0  0  0  0  0  0  0  0
   -7.0075   -4.4926    0.2438 H   0  0  0  0  0  0  0  0  0  0  0  0
   -5.8790   -3.5725   -0.7670 H   0  0  0  0  0  0  0  0  0  0  0  0
   -6.3826   -5.1504    2.5666 H   0  0  0  0  0  0  0  0  0  0  0  0
   -4.9541   -4.6963    4.5505 H   0  0  0  0  0  0  0  0  0  0  0  0
   -2.8579   -3.3429    4.2988 H   0  0  0  0  0  0  0  0  0  0  0  0
   -3.6349   -2.9084    0.1119 H   0  0  0  0  0  0  0  0  0  0  0  0
    2.2249    0.2776    2.1337 H   0  0  0  0  0  0  0  0  0  0  0  0
   -2.2919   -0.6459   -1.2944 H   0  0  0  0  0  0  0  0  0  0  0  0
   -1.3864   -2.1038   -1.6469 H   0  0  0  0  0  0  0  0  0  0  0  0
   -1.0230   -0.6090   -2.5425 H   0  0  0  0  0  0  0  0  0  0  0  0
  1  2  1  0  0  0  0
  1 21  1  0  0  0  0
  1 22  1  0  0  0  0
  1 23  1  0  0  0  0
  2  3  2  0  0  0  0
  2  7  1  0  0  0  0
  3  4  1  0  0  0  0
  3 24  1  0  0  0  0
  4  5  2  0  0  0  0
  4 25  1  0  0  0  0
  5  6  1  0  0  0  0
  5 26  1  0  0  0  0
  6  7  2  0  0  0  0
  6  8  1  0  0  0  0
  7 27  1  0  0  0  0
  8  9  2  0  0  0  0
  9 10  1  0  0  0  0
 10 11  2  0  0  0  0
 10 15  1  0  0  0  0
 11 12  1  0  0  0  0
 11 20  1  0  0  0  0
 12 13  2  0  0  0  0
 12 18  1  0  0  0  0
 13 14  1  0  0  0  0
 13 17  1  0  0  0  0
 14 15  1  0  0  0  0
 14 28  1  0  0  0  0
 15 16  2  0  0  0  0
 18 19  3  0  0  0  0
 20 29  1  0  0  0  0
 20 30  1  0  0  0  0
 20 31  1  0  0  0  0
M  CHG  1  17  -1
M  END
$$$$
