31
-1 1 C14H11N4O2
C                    -5.951763754801    -4.370670060985    -0.021572025412
C                    -5.105001904793    -4.065938061865     1.196424783222
C                    -5.470494925552    -4.565370867120     2.459573372768
C                    -4.665205360308    -4.309206239093     3.575194875587
C                    -3.497090690006    -3.556798717789     3.446397973898
C                    -3.116824681975    -3.045222385654     2.192059740401
C                    -3.936642664660    -3.310270078678     1.074582757069
N                    -1.918367673052    -2.293976170198     2.173518466336
N                    -1.635935127505    -1.843392051933     1.007240046247
C                    -0.501616587309    -1.096289024156     0.823211876601
C                    -0.289458801797    -0.645079238509    -0.508395791886
C                     0.823803586683     0.127725100875    -0.854038401786
C                     1.821205106727     0.507065181082     0.140055522562
N                     1.548120106183     0.030734734106     1.418144123583
C                     0.467044466449    -0.748923185711     1.872325884865
O                     0.434434079595    -1.057563084447     3.065757303110
O                     2.835124480645     1.186135763169    -0.070795512745
C                     1.038683898983     0.580928842127    -2.188128784534
N                     1.192515714124     0.940591256084    -3.290855593423
C                    -1.300527609208    -1.016417212063    -1.569457907178
H                    -5.626189370390    -5.300338025212    -0.505945738443
H                    -7.007546321979    -4.492577276479     0.243845297894
H                    -5.879044460640    -3.572541464634    -0.767010801446
H                    -6.382557275107    -5.150374807694     2.566607660581
H                    -4.954135445279    -4.696258140502     4.550529346107
H                    -2.857917058585    -3.342883751723     4.298838535680
H                    -3.634900495613    -2.908388409283     0.111860971361
H                     2.224892556312     0.277571137391     2.133692779965
H                    -2.291871563638    -0.645855700230    -1.294433953707
H                    -1.386433973000    -2.103813820660    -1.646912908740
H                    -1.022993461305    -0.608990120048    -2.542477539615
