14
-2 1 BrC7H3O2S
C                     1.891428801162    -1.039400875894    -0.132912683281
C                     2.899901671557    -1.620329966734     0.661153753006
C                     2.876040928250    -1.651992782416     2.059638154739
C                     1.767297956571    -1.063185084301     2.761218760595
C                     0.740978611205    -0.472018991527     1.952932967525
C                     0.829708056039    -0.476858052530     0.569341178865
Br                   -0.634632438978     0.363340137362    -0.479850348569
S                     1.584215564186    -1.016895249588     4.498400744680
C                     4.091006345233    -2.343090890447     2.716007934090
O                     3.989717085683    -3.594264877062     2.868000466833
O                     5.091695045317    -1.599879770550     2.928458449850
H                     1.939748437945    -1.031350227816    -1.217869329844
H                     3.753752046097    -2.074546304455     0.158287137999
H                    -0.108595545797    -0.019781533153     2.454120630246
