
  -OEChem-12122420533D

 22 23  0     1  0  0  0  0  0999 V2000
   -0.1318    0.0577   -3.0028 C   0  0  0  0  0  0  0  0  0  0  0  0
    0.5248    0.1787   -4.2276 C   0  0  0  0  0  0  0  0  0  0  0  0
    1.8661    0.5510   -4.2508 C   0  0  0  0  0  0  0  0  0  0  0  0
    2.5535    0.8001   -3.0571 C   0  0  0  0  0  0  0  0  0  0  0  0
    1.9064    0.6735   -1.8352 C   0  0  0  0  0  0  0  0  0  0  0  0
    0.5521    0.3016   -1.7998 C   0  0  0  0  0  0  0  0  0  0  0  0
   -0.1186    0.1414   -0.4773 C   0  0  1  0  0  0  0  0  0  0  0  0
    0.5039    0.5202    0.3341 H   0  0  0  0  0  0  0  0  0  0  0  0
   -1.6163    0.4768   -0.2474 C   0  0  0  0  0  0  0  0  0  0  0  0
   -1.8057   -0.8860    0.4498 C   0  0  0  0  0  0  0  0  0  0  0  0
   -0.4484   -1.3526   -0.0886 N   0  3  0  0  0  0  0  0  0  0  0  0
    3.8394    1.1615   -3.1030 F   0  0  0  0  0  0  0  0  0  0  0  0
    2.5097    0.6807   -5.4114 F   0  0  0  0  0  0  0  0  0  0  0  0
   -1.1846   -0.2126   -3.0060 H   0  0  0  0  0  0  0  0  0  0  0  0
    0.0136    0.0006   -5.1685 H   0  0  0  0  0  0  0  0  0  0  0  0
    2.4700    0.8797   -0.9292 H   0  0  0  0  0  0  0  0  0  0  0  0
   -1.7992    1.3585    0.3655 H   0  0  0  0  0  0  0  0  0  0  0  0
   -2.1839    0.5640   -1.1737 H   0  0  0  0  0  0  0  0  0  0  0  0
   -1.7598   -0.8521    1.5378 H   0  0  0  0  0  0  0  0  0  0  0  0
   -2.6199   -1.5324    0.1252 H   0  0  0  0  0  0  0  0  0  0  0  0
   -0.5238   -1.9428   -0.9240 H   0  0  0  0  0  0  0  0  0  0  0  0
    0.1859   -1.8142    0.5719 H   0  0  0  0  0  0  0  0  0  0  0  0
  1  2  1  0  0  0  0
  1  6  2  0  0  0  0
  1 14  1  0  0  0  0
  2  3  2  0  0  0  0
  2 15  1  0  0  0  0
  3  4  1  0  0  0  0
  3 13  1  0  0  0  0
  4  5  2  0  0  0  0
  4 12  1  0  0  0  0
  5  6  1  0  0  0  0
  5 16  1  0  0  0  0
  6  7  1  0  0  0  0
  7  8  1  0  0  0  0
  7  9  1  0  0  0  0
  7 11  1  0  0  0  0
  9 10  1  0  0  0  0
  9 17  1  0  0  0  0
  9 18  1  0  0  0  0
 10 11  1  0  0  0  0
 10 19  1  0  0  0  0
 10 20  1  0  0  0  0
 11 21  1  0  0  0  0
 11 22  1  0  0  0  0
M  CHG  1  11   1
M  END
$$$$
