24   
torsion grid (-165,)
C        2.3031637472   -1.6167662267    3.6674422671
C        2.3478625043   -0.9470781034    1.3408550136
C        0.9142375259   -1.6446013948    3.6529558095
C        0.9591147613   -1.0125786469    1.3069951531
C        3.0413727294   -1.2180142152    2.5370742647
C        0.2357370385   -1.3359728307    2.4667393025
C        4.4115070397    2.1319522879    0.3387639694
C        4.9948777051    0.2242669876    1.0458436353
C        3.8842046263    3.5214056718    0.1905786179
N        4.3531353704    1.3758210276    1.4263410323
N        5.4649818033    0.2229887045   -0.1987587803
N        4.4495295190   -1.3543908162    2.6911880855
N        5.3129919344   -0.8258336163    1.9455270246
N        5.0542882195    1.4464510407   -0.6432522930
O       -1.1316008484   -1.3941754220    2.4869618932
H        2.8530625361   -1.8925144900    4.5624102842
H        2.8821755876   -0.7271599076    0.4249805393
H        0.3426951428   -1.9264238368    4.5318590166
H        0.4317081678   -0.8212926548    0.3735914471
H        4.4344726817    4.2064401427    0.8422591256
H        3.9751026815    3.8744139185   -0.8402817721
H        2.8315069025    3.5573003954    0.4825659659
H        5.2925574395    1.7429729666   -1.5813486807
H       -1.4755464006   -1.1741762998    1.6064350826
24   
torsion grid (-150,)
C        2.3659543709   -1.4458162400    3.6393644891
C        2.4273252877   -1.1762622770    1.2322174172
C        0.9788561395   -1.3541592938    3.6274888288
C        1.0362459752   -1.1302643023    1.2082794458
C        3.1079021932   -1.3082940548    2.4546771506
C        0.3089766392   -1.1941737415    2.4068621315
C        4.3351897999    2.0859299742    0.4268492319
C        5.0010815285    0.1669390800    1.0180645046
C        3.7453498347    3.4563070232    0.3608275438
N        4.3079317311    1.2621975515    1.4651759004
N        5.4755614908    0.2636456987   -0.2207960578
N        4.5135660271   -1.5068793053    2.5746890770
N        5.3599635545   -0.9331859712    1.8447494184
N        5.0117295373    1.4914835787   -0.5916361508
O       -1.0600772144   -1.1339201860    2.4413993225
H        2.9018214241   -1.6077467071    4.5700910087
H        2.9774968496   -1.1456292881    0.2978218444
H        0.3987820876   -1.4295347173    4.5421132145
H        0.5129518831   -1.0524207896    0.2563996837
H        4.2660201473    4.1266921108    1.0509738399
H        3.8164057936    3.8726366373   -0.6477189455
H        2.6931797603    3.4262871416    0.6551741227
H        5.2357413848    1.8539666920   -1.5098811662
H       -1.3990580634   -1.0411502201    1.5368305758
24   
torsion grid (-135,)
C        2.4224198368   -1.2842685143    3.5845103011
C        2.4516619704   -1.4000447856    1.1626490169
C        1.0451240088   -1.0915095755    3.5671636174
C        1.0657603173   -1.2512461272    1.1424083623
C        3.1380377334   -1.4019089257    2.3848434441
C        0.3628144352   -1.0764128369    2.3426229741
C        4.2646715416    2.0305743072    0.5034107970
C        4.9864902123    0.1067094034    1.0029874337
C        3.6302873429    3.3823704614    0.5006843265
N        4.2588947877    1.1562847737    1.4997497862
N        5.4624400168    0.2782489787   -0.2267996611
N        4.5426592473   -1.6494218898    2.4738257836
N        5.3766984635   -1.0286582853    1.7708893696
N        4.9640928143    1.5076389172   -0.5389138720
O       -0.9991055186   -0.9073116025    2.3824129529
H        2.9632049534   -1.3234561280    4.5255937704
H        2.9949330883   -1.5378403325    0.2327176492
H        0.4806875832   -0.9700630498    4.4867177331
H        0.5316607406   -1.2745991460    0.1936376280
H        4.1175489510    4.0310526158    1.2345183859
H        3.7026752398    3.8545895993   -0.4828029843
H        2.5753357037    3.3017120175    0.7749608848
H        5.1752629241    1.9187771928   -1.4395750373
H       -1.3499193819   -0.9360697570    1.4782018988
24   
torsion grid (-120,)
C        2.4864387406   -1.1421716877    3.5066916924
C        2.4302280087   -1.6145896407    1.1291847594
C        1.1214628237   -0.8738409331    3.4909949731
C        1.0540367847   -1.3778079714    1.1176107888
C        3.1474185823   -1.4920395130    2.3232529396
C        0.4004080942   -0.9939756561    2.2947352227
C        4.2173649636    1.9813246717    0.5883949473
C        4.9780550633    0.0539967030    1.0107548996
C        3.5446585278    3.3136204606    0.6340451292
N        4.2128539999    1.0591535771    1.5404078003
N        5.4776159851    0.2986219849   -0.1974188118
N        4.5511188872   -1.7885690117    2.3743384649
N        5.3804629535   -1.1204353017    1.7137898577
N        4.9544940572    1.5270561350   -0.4606819322
O       -0.9490090017   -0.7337799205    2.3425775835
H        3.0539261583   -1.0594456923    4.4289244587
H        2.9424831078   -1.9038585516    0.2159149675
H        0.5965766614   -0.5782451968    4.3944409014
H        0.4929138151   -1.4927374019    0.1914104509
H        3.9857834328    3.9340204936    1.4195893243
H        3.6391253003    3.8405352548   -0.3192967728
H        2.4831552611    3.1894026467    0.8631979495
H        5.1672343411    1.9828188894   -1.3393294459
H       -1.3303645595   -0.8765405612    1.4619960035
24   
torsion grid (-105,)
C        2.5574420382   -1.0360853676    3.3673227125
C        2.3299902252   -1.8422763542    1.0935589235
C        1.2049258472   -0.7103869280    3.3917797301
C        0.9671577341   -1.5286571959    1.1203112113
C        3.1225347438   -1.5916509266    2.2145074830
C        0.4059099275   -0.9566984833    2.2666350785
C        4.3097460862    1.9063211359    0.6015863109
C        5.0356686050   -0.0442628964    0.9838949147
C        3.6288363030    3.2338476756    0.6588403839
N        4.2094953395    0.9257976238    1.4871272588
N        5.6629818493    0.2810423339   -0.1452701628
N        4.5150413767   -1.9682407500    2.2055016903
N        5.3738307236   -1.2800123228    1.6088049600
N        5.1626963351    1.5197046904   -0.3863093864
O       -0.9262514955   -0.6188935477    2.3524233564
H        3.1849012996   -0.8401619178    4.2315976715
H        2.7728897972   -2.2813735423    0.2038236179
H        0.7521809972   -0.2632591624    4.2717960145
H        0.3482049730   -1.7323729831    0.2477282835
H        4.0384008809    3.8371120987    1.4747277086
H        3.7530767341    3.7861580142   -0.2765751242
H        2.5615189308    3.0961294777    0.8477247567
H        5.4605462732    2.0270708785   -1.2105198706
H       -1.3681490399   -0.8674456534    1.5253931908
24   
torsion grid (-90,)
C        2.7056021143   -1.0726332144    3.1816294486
C        2.0672062656   -1.8697491108    0.9880244457
C        1.3819613642   -0.7239838877    3.4472850455
C        0.7416208588   -1.5185972234    1.2498656902
C        3.0555434878   -1.6113938421    1.9390868977
C        0.3974717467   -0.9374328134    2.4762924750
C        4.3606055116    1.9300394205    0.4116578415
C        5.1146350486    0.0177387742    0.9334820870
C        3.5040896577    3.1136592365    0.1039174569
N        3.9490532798    0.7206711263    0.7541254126
N        6.2261718453    0.7255254103    0.7060757178
N        4.4013106727   -2.0807610260    1.7179955152
N        5.3143216119   -1.3445171763    1.2770827257
N        5.7248651486    1.9382666353    0.3881811140
O       -0.8939954186   -0.5707310387    2.7886779192
H        3.4727346033   -0.9142893849    3.9347960216
H        2.3364021992   -2.3225654110    0.0380643415
H        1.0970436451   -0.2942558056    4.4031652030
H       -0.0237790864   -1.7035640571    0.4974097628
H        2.9638609598    3.4336144236    0.9996658595
H        4.1005307788    3.9535720335   -0.2623922216
H        2.7636413555    2.8507719429   -0.6556507370
H        6.3568122876    2.6980173126    0.1648770807
H       -1.4730783566   -0.7978685877    2.0444352173
24   
torsion grid (-75,)
C        2.8455411252   -1.0270305786    2.9951845281
C        1.9549159745   -1.9514201828    0.9425194669
C        1.5616965224   -0.6548661075    3.3917572075
C        0.6719834739   -1.5605417673    1.3256210472
C        3.0489191180   -1.6410928298    1.7532639167
C        0.4731370600   -0.9077560266    2.5497220244
C        4.3368611908    1.9048227793    0.3795955062
C        5.0923406696    0.0086379612    0.9385471656
C        3.5077262133    3.0446536171   -0.1129287882
N        3.9991979959    0.6238675300    0.3868154186
N        6.0989156045    0.8241019908    1.2495939679
N        4.3494978177   -2.1538794723    1.4075411876
N        5.2912815081   -1.3934829629    1.0845584953
N        5.5842410706    2.0330595948    0.9101683181
O       -0.7709961825   -0.5085498755    2.9830246158
H        3.6938981305   -0.8363738909    3.6470111546
H        2.1138350610   -2.4683888691    0.0008164831
H        1.3878678679   -0.1767656170    4.3512398998
H       -0.1750350594   -1.7744207360    0.6754070646
H        2.6266468949    3.1746682675    0.5223343741
H        4.0756715620    3.9788799742   -0.1163472133
H        3.1602367707    2.8416503517   -1.1290278088
H        6.1386930595    2.8691042920    1.0484238818
H       -1.4327040625   -0.7673867638    2.3225530566
24   
torsion grid (-60,)
C        2.8844091066   -0.9135519169    2.8191682273
C        1.8741564831   -2.1069272065    0.9683586929
C        1.6221839461   -0.5478491030    3.2782812491
C        0.6096686347   -1.7116769091    1.4031258500
C        3.0168278698   -1.6670990393    1.6428269683
C        0.4820531153   -0.9292853093    2.5591680887
C        4.3576179500    1.9255869664    0.4047337117
C        5.0688902586    0.0066956773    0.9360992935
C        3.5791382801    3.0856159669   -0.1223073406
N        4.0468633258    0.6430241673    0.2821406039
N        6.0069026284    0.8064960974    1.4358796434
N        4.2903911414   -2.1714345857    1.2208276498
N        5.2530885383   -1.4059676877    0.9747054729
N        5.5172714161    2.0331176779    1.1077219152
O       -0.7372617612   -0.5247542210    3.0473317184
H        3.7702665796   -0.6218552885    3.3761957774
H        1.9843740143   -2.7329475851    0.0877916364
H        1.5015003468    0.0258491827    4.1924260814
H       -0.2764477669   -2.0264580240    0.8541302505
H        2.6179999645    3.1636576902    0.3943995142
H        4.1232028269    4.0245640705    0.0109204476
H        3.3759993154    2.9459374377   -1.1870454421
H        6.0353979321    2.8636717094    1.3660476385
H       -1.4388459717   -0.8706228375    2.4732391198
24   
torsion grid (-45,)
C        2.8918873709   -0.7710007277    2.6191412386
C        1.8596810690   -2.2647755479    1.0138714470
C        1.6399700669   -0.4561127144    3.1335120642
C        0.5986089305   -1.9184138703    1.4960945685
C        3.0098028456   -1.6610857548    1.5361843159
C        0.4870886637   -1.0105899623    2.5579353482
C        4.4281850817    2.0108331261    0.3957353255
C        5.0848456779    0.0570417323    0.8676152980
C        3.6964067806    3.2072088305   -0.1169877865
N        4.1036601552    0.7407734498    0.1980105764
N        6.0100359374    0.8154811707    1.4484379438
N        4.2612605316   -2.1219382636    1.0284775231
N        5.2374201068   -1.3578082711    0.8270886374
N        5.5538777199    2.0662682449    1.1562272624
O       -0.7214936240   -0.6446200865    3.0941387186
H        3.7812056493   -0.3484772596    3.0760274965
H        1.9661192380   -2.9896461944    0.2121581641
H        1.5332130500    0.2126770928    3.9824273806
H       -0.2933223601   -2.3678622356    1.0627053190
H        2.6902163751    3.2474231096    0.3100609050
H        4.2198010505    4.1332026182    0.1359612341
H        3.5958867993    3.1475659224   -1.2038928325
H        6.0760064650    2.8747866779    1.4700131936
H       -1.4322725831   -1.1068244116    2.6219405403
24   
torsion grid (-30,)
C        2.7848022034   -0.6349178624    2.4496880914
C        1.8063216544   -2.4054511508    1.1145948672
C        1.5413655583   -0.3713911846    3.0071944033
C        0.5480218562   -2.1167234574    1.6377407993
C        2.9300752535   -1.6503475857    1.4818306774
C        0.4135419780   -1.0945526570    2.5864763945
C        4.5148017363    2.0733766315    0.4098160613
C        5.0662026197    0.0732048343    0.8251857756
C        3.8577763584    3.3213737793   -0.0811789807
N        4.1423368776    0.8278683451    0.1485134994
N        6.0011721850    0.7655353410    1.4695523241
N        4.1524675636   -2.0806725253    0.8939310265
N        5.1530285620   -1.3406281076    0.7162357190
N        5.6106481746    2.0479139184    1.2132703015
O       -0.7876451459   -0.7691580347    3.1582909192
H        3.6477571445   -0.0823623892    2.8027584666
H        1.9391922767   -3.2131079353    0.4008889374
H        1.4188132719    0.3894566369    3.7723108745
H       -0.3201503967   -2.6947585286    1.3258138895
H        2.8407042621    3.3959160846    0.3144744707
H        4.4157081442    4.2114880414    0.2218695286
H        3.7908714357    3.3045832113   -1.1721319535
H        6.1595325996    2.8186913636    1.5728496989
H       -1.4806543675   -1.3438850066    2.7955074794
24   
torsion grid (-15,)
C        2.6417284581   -0.5054639718    2.2451725972
C        1.7952170047   -2.5310738614    1.2202444057
C        1.4153372934   -0.3148375719    2.8655753251
C        0.5522133268   -2.3285033120    1.8131846693
C        2.8513752100   -1.6221459906    1.4045849644
C        0.3596230992   -1.2133089115    2.6388360922
C        4.6246046592    2.1621775398    0.3923916042
C        5.0365545593    0.1143037376    0.7347698809
C        4.0746220279    3.4687568830   -0.0777024750
N        4.2087365233    0.9538299523    0.0341792690
N        5.9513984504    0.7174394372    1.4871938073
N        4.0382352882   -2.0129144202    0.7227352863
N        5.0498088480   -1.2914040566    0.5335933037
N        5.6502979934    2.0336633791    1.2728610157
O       -0.8273030546   -0.9537533569    3.2669124311
H        3.4414666247    0.1896403843    2.4610847960
H        1.9770796402   -3.3984957575    0.5930134997
H        1.2496034145    0.5264894761    3.5319413606
H       -0.2572683773   -3.0371618438    1.6471949605
H        3.0284334854    3.5715322117    0.2245030123
H        4.6401402873    4.3100496585    0.3320029810
H        4.1126806699    3.5199218088   -1.1690648579
H        6.2109212433    2.7523338176    1.7131006390
H       -1.4698477636   -1.6440549589    3.0365428043
24   
torsion grid (0,)
C        2.0840397277   -0.3979692857    1.3903687729
C        2.2200018332   -2.7559323547    1.9264811760
C        0.7452280141   -0.4025655071    1.7569238672
C        0.8799882147   -2.7666789316    2.3001918707
C        2.8508799316   -1.5847879483    1.4669376481
C        0.1368513439   -1.5822631468    2.2152845233
C        4.6754936116    2.4580909958    1.0135210980
C        4.7596866697    0.3958142425    0.5512016235
C        4.7056771010    3.7921545241    1.6841652016
N        4.8611435148    1.2766240419    1.5947083461
N        4.5402926785    0.9416868281   -0.6390261760
N        4.2192625089   -1.8256844024    1.1418275049
N        5.0459683782   -0.9898851262    0.7039924498
N        4.4699576605    2.2702393639   -0.3136744748
O       -1.1832093874   -1.5106624548    2.5615630169
H        2.5105563002    0.5296524088    1.0422107101
H        2.8184298232   -3.6601224623    1.9797330148
H        0.1475846579    0.5022700558    1.6980690640
H        0.4149890996   -3.6854742800    2.6530970531
H        5.7309268918    4.0559548280    1.9619375168
H        4.3114618728    4.5759262840    1.0315019916
H        4.1094598791    3.7627318632    2.5992127815
H        4.3336549260    2.9567262910   -1.0449412536
H       -1.4851139288   -2.3837021978    2.8603166912
24   
torsion grid (15,)
C        2.0457008952   -0.4889621577    0.9588898263
C        2.3412975734   -2.6215894458    2.0699459542
C        0.7449283984   -0.4274413773    1.4376802521
C        1.0483574651   -2.5506710597    2.5808070606
C        2.8710457269   -1.5927645188    1.2721060377
C        0.2456652942   -1.4468415573    2.2652386289
C        4.5788908906    2.3457612258    1.0698040664
C        4.7425380029    0.3695258917    0.3298550662
C        4.4840528729    3.5679663713    1.9228889667
N        4.6263843418    1.0886887296    1.4922003718
N        4.7891880663    1.0940593783   -0.7835478848
N        4.2017507547   -1.8589281034    0.8434947432
N        4.9841592883   -1.0294403989    0.3147108101
N        4.6550289556    2.3603014307   -0.2861215535
O       -1.0381238278   -1.3119603704    2.7172680345
H        2.3908803998    0.2989232330    0.3035088726
H        2.9765189683   -3.4762567972    2.2820285025
H        0.0939208297    0.4041481638    1.1847630415
H        0.6612387451   -3.3517832938    3.2079983844
H        5.4385345666    3.7592353054    2.4233009429
H        4.2220071950    4.4488303401    1.3303066931
H        3.7247722268    3.4238777812    2.6949407546
H        4.6748257711    3.1501298389   -0.9188995735
H       -1.2659216055   -2.0772867490    3.2693914578
24   
torsion grid (30,)
C        2.0092119781   -0.5873907315    0.7168863577
C        2.4261466453   -2.4912644329    2.1574255197
C        0.7360319296   -0.4610342283    1.2548187644
C        1.1661746159   -2.3432895524    2.7327634980
C        2.8787330360   -1.5993766084    1.1737457279
C        0.3183083927   -1.3232227279    2.2814689349
C        4.4965981712    2.2638869354    1.1474024808
C        4.7056869124    0.3523978975    0.2631678289
C        4.3486111950    3.4153241761    2.0868038916
N        4.5136057226    0.9774797710    1.4688570635
N        4.8305670017    1.1648024474   -0.7821128762
N        4.1708453055   -1.8933753362    0.6547258966
N        4.9361645575   -1.0436375040    0.1327729442
N        4.6642311719    2.3862106980   -0.1957562718
O       -0.9403219410   -1.1308874289    2.7860119222
H        2.3068909414    0.0717281004   -0.0903809464
H        3.0885693512   -3.2930269166    2.4699812115
H        0.0465934841    0.2969832686    0.8950498926
H        0.8365980060   -3.0275057948    3.5127619250
H        5.2760029795    3.5745697389    2.6460999168
H        4.1052144840    4.3376839062    1.5521975651
H        3.5547112104    3.2053450612    2.8069821833
H        4.7218528758    3.2239384201   -0.7610628342
H       -1.1128897191   -1.7922129301    3.4752451659
24   
torsion grid (45,)
C        1.9490714157   -0.7073054281    0.5176306117
C        2.5106072172   -2.3445015596    2.2141455700
C        0.7011874907   -0.5270886815    1.1016912851
C        1.2778068638   -2.1345277699    2.8297252320
C        2.8753136311   -1.6012629808    1.0851200790
C        0.3700911083   -1.2227872162    2.2740300220
C        4.4395107658    2.1806030109    1.2046785507
C        4.6685858359    0.3263451567    0.2122599354
C        4.2633193720    3.2737758924    2.2065544724
N        4.4370677368    0.8772669778    1.4462588771
N        4.8380133002    1.2006990179   -0.7754956165
N        4.1255397392   -1.9278921246    0.4807075299
N        4.8880614498   -1.0612248023   -0.0139304255
N        4.6581819121    2.3831134892   -0.1221559655
O       -0.8673682636   -0.9864939792    2.8171766719
H        2.1955743691   -0.1754124095   -0.3958958601
H        3.2130755078   -3.0700689196    2.6136534976
H       -0.0325170336    0.1436102190    0.6645042609
H        1.0143023105   -2.6930042175    3.7263974572
H        5.1719025754    3.3953509628    2.8048512728
H        4.0397769811    4.2276294336    1.7207967233
H        3.4450987918    3.0239073561    2.8855209729
H        4.7328293359    3.2533044586   -0.6340078525
H       -0.9787613487   -1.5384044539    3.6076218897
24   
torsion grid (60,)
C        1.8241551159   -0.8416554357    0.3630946951
C        2.5494062568   -2.1915158001    2.2396560811
C        0.6027204543   -0.6155944757    0.9912734334
C        1.3421041584   -1.9366885580    2.8889865697
C        2.8159113642   -1.6034844325    0.9997130977
C        0.3663633693   -1.1462954820    2.2660082155
C        4.4034233496    2.0897993353    1.2529596572
C        4.6327637866    0.2801287550    0.1824036761
C        4.2038342806    3.1379228181    2.2975640178
N        4.3527530126    0.7772794693    1.4284950996
N        4.8767467868    1.1964942188   -0.7505069410
N        4.0260148785   -1.9657745871    0.3230443541
N        4.8163450082   -1.0993688390   -0.1219633403
N        4.6976068318    2.3491378844   -0.0499372943
O       -0.8491305360   -0.8761807498    2.8477422368
H        2.0092050584   -0.4336781319   -0.6265835979
H        3.3028583297   -2.8223750823    2.7020521045
H       -0.1789806097   -0.0371662900    0.5078543044
H        1.1525360709   -2.3674015877    3.8709334650
H        5.0912133384    3.2204775427    2.9333005042
H        4.0089031610    4.1158962534    1.8488788025
H        3.3582722986    2.8671818167    2.9334603270
H        4.8141716054    3.2404404460   -0.5157947998
H       -0.8922374023   -1.3173500125    3.7108361096
24   
torsion grid (75,)
C        1.6867502101   -0.9499856461    0.2589464431
C        2.6289827538   -2.0246897724    2.2129281078
C        0.4955743474   -0.7272960916    0.9484369642
C        1.4469342550   -1.7835551902    2.9130523999
C        2.7684965130   -1.5642504101    0.9018184166
C        0.3787272652   -1.1306600620    2.2832232980
C        4.4091609659    2.0824840542    1.2796309780
C        4.6533647493    0.3010774020    0.1626659582
C        4.1445557536    3.1031483110    2.3367742045
N        4.2491202643    0.7718301019    1.3848510308
N        5.0773908895    1.2358193916   -0.6867827013
N        3.9436891533   -1.9234787327    0.1511664142
N        4.7731935275   -1.0631760789   -0.2249316501
N        4.8873912734    2.3678159563    0.0368488530
O       -0.8138559228   -0.8753660319    2.9217314417
H        1.7814349203   -0.6418035958   -0.7788399541
H        3.4557166366   -2.5411955086    2.6915394811
H       -0.3517305361   -0.2508392632    0.4642274183
H        1.3535455826   -2.1145339911    3.9463527706
H        4.9366091528    3.0874658799    3.0922111599
H        4.0908563592    4.1102252864    1.9141599332
H        3.1991420529    2.8793987137    2.8356212779
H        5.1151930560    3.2661192131   -0.3714254364
H       -0.7702921714   -1.2293488025    3.8238787910
24   
torsion grid (90,)
C        1.4448905225   -1.0398666321    0.2171731895
C        2.6428073897   -1.9515386690    2.1119047872
C        0.3180859478   -0.8467509013    1.0155087958
C        1.5171874296   -1.7567156966    2.9144725072
C        2.6190575291   -1.5579392322    0.7730344181
C        0.3554820869   -1.1960277551    2.3699223832
C        4.3785563770    2.0805213212    1.2612062547
C        4.6539754733    0.2856914743    0.1660131346
C        3.9520819421    3.1347009283    2.2287325657
N        3.9306180375    0.8380031875    1.1942553783
N        5.5324300748    1.1187494205   -0.4011069141
N        3.7386736180   -1.8657774561   -0.0827808573
N        4.6354844181   -1.0341967746   -0.3551371804
N        5.3320867512    2.2549694800    0.3006845865
O       -0.7845537717   -0.9799313591    3.1140311018
H        1.4189446536   -0.7752492543   -0.8364368275
H        3.5451072511   -2.3876610911    2.5308387265
H       -0.5974238450   -0.4346061806    0.6013460299
H        1.5458385393   -2.0469532487    3.9638641567
H        4.4086739314    2.9635675725    3.2088568879
H        4.2381766262    4.1323961058    1.8845002742
H        2.8677397334    3.1005307202    2.3530156210
H        5.8714351767    3.0827267451    0.0763105978
H       -0.6303510888   -1.2884139915    4.0206160621
24   
torsion grid (105,)
C        1.2792991109   -0.8802043927    0.1406119849
C        2.8756020039   -1.7059298258    1.7651268742
C        0.3051687733   -0.8026139482    1.1311134574
C        1.8939901747   -1.6417849710    2.7593884798
C        2.5682188985   -1.3207742297    0.4594551725
C        0.6104153694   -1.1837659523    2.4450300084
C        4.1117932486    2.3339101580    1.1795287150
C        4.5643428380    0.5494544621    0.1370372012
C        3.4454987452    3.5157186075    1.8028688315
N        3.5192916335    1.3460556786    0.5252658715
N        5.7705565453    0.9922323246    0.4890094111
N        3.5644124072   -1.4404718680   -0.5766741340
N        4.4918303885   -0.6073093904   -0.6920245299
N        5.4562943789    2.1185669131    1.1776670644
O       -0.3959821526   -1.0903794158    3.3803622490
H        1.0520503831   -0.5783660075   -0.8774229587
H        3.8758936570   -2.0554893273    2.0056873585
H       -0.6958436244   -0.4473421721    0.9051660714
H        2.1337261867   -1.9502666283    3.7759190790
H        2.5594116024    3.1916872085    2.3531123714
H        4.1180421127    4.0360807957    2.4903149266
H        3.1228824270    4.2237263320    1.0329543570
H        6.1953662148    2.6754323335    1.5889905014
H       -0.0647318897   -1.4136072525    4.2328981730
24   
torsion grid (120,)
C        1.1759024465   -1.0162692661    0.0907511023
C        2.9147111841   -1.4947086459    1.7110366060
C        0.2325024504   -0.9622131190    1.1118594325
C        1.9644892444   -1.4747103027    2.7340225920
C        2.5213729040   -1.2612141061    0.3895954376
C        0.6250501857   -1.1946930150    2.4375267750
C        4.1424788790    2.3306201775    1.2151516506
C        4.5557522792    0.5488773421    0.1531242701
C        3.5134955854    3.5445943543    1.8153662469
N        3.5433594382    1.4181897898    0.4634766835
N        5.7495959551    0.8728200410    0.6420174238
N        3.4685624901   -1.3353321860   -0.6865256835
N        4.4412937631   -0.5477311438   -0.7518092359
N        5.4564547504    2.0019227722    1.3427852452
O       -0.3532663589   -1.1464639139    3.4026751953
H        0.8822043658   -0.8453786930   -0.9407337634
H        3.9567075470   -1.7017320530    1.9379341728
H       -0.8114945845   -0.7501190050    0.9016113793
H        2.2687687498   -1.6766184834    3.7599892103
H        2.5513483655    3.2803134744    2.2596997620
H        4.1509054659    3.9834866417    2.5879102337
H        3.3317447268    4.3018024666    1.0461316954
H        6.1927019106    2.4855251037    1.8418684881
H        0.0426924924   -1.3475738179    4.2652430381
24   
torsion grid (135,)
C        1.0625711635   -1.1798113547    0.0646446287
C        2.8548305147   -1.2986000635    1.6931550087
C        0.1209247679   -1.1958703652    1.0881669024
C        1.9137194736   -1.3593169523    2.7196400202
C        2.4327193088   -1.1931192867    0.3606193422
C        0.5459062474   -1.2876549719    2.4208738782
C        4.2146022053    2.3635691464    1.2245765323
C        4.5390397451    0.5728777317    0.1462117816
C        3.6500592695    3.6077614884    1.8272049901
N        3.5736707899    1.4958674734    0.4545988126
N        5.7426848057    0.8210230620    0.6545058973
N        3.3469390071   -1.2278695741   -0.7367944170
N        4.3621289092   -0.4914872462   -0.7839172995
N        5.5051412206    1.9581474921    1.3664308452
O       -0.4248148978   -1.3242938479    3.3911866451
H        0.7490945750   -1.1341199716   -0.9742442954
H        3.9138887399   -1.3562289603    1.9256867233
H       -0.9432208266   -1.1572806997    0.8760218912
H        2.2434591030   -1.4654863263    3.7520934573
H        2.6617485810    3.4009048362    2.2435941929
H        4.2944898496    3.9943648525    2.6216041923
H        3.5372831000    4.3852809842    1.0649847690
H        6.2626475700    2.3966560567    1.8750770954
H       -0.0026477492   -1.4105083548    4.2605687229
24   
torsion grid (150,)
C        0.9955392403   -1.3523003029    0.0517982018
C        2.7620666560   -1.0834729367    1.6882800093
C        0.0535707956   -1.4681680870    1.0675825309
C        1.8308747847   -1.2450644737    2.7102452486
C        2.3474087853   -1.1092858749    0.3457500919
C        0.4715162851   -1.4129996662    2.4041989763
C        4.3162718541    2.4240568985    1.2290382337
C        4.5299003992    0.6285309603    0.1304593056
C        3.8299261984    3.6954399639    1.8432574597
N        3.6228007377    1.6063773639    0.4496437924
N        5.7460039567    0.7952262818    0.6428816949
N        3.2333268055   -1.0954198772   -0.7696355753
N        4.2815099295   -0.4041183916   -0.8146508400
N        5.5787403049    1.9382324246    1.3677945795
O       -0.4885416993   -1.5568030733    3.3720291214
H        0.6983087734   -1.4300813959   -0.9899414861
H        3.8122904436   -0.9738639187    1.9367719114
H       -0.9980951207   -1.6263747496    0.8492001471
H        2.1605200275   -1.2483428941    3.7481720792
H        2.8292442469    3.5480619858    2.2554404918
H        4.4954359102    4.0324721959    2.6428681860
H        3.7687823033    4.4861174634    1.0887165733
H        6.3634970616    2.3276765209    1.8749792901
H       -0.0694599817   -1.5180737105    4.2464573391
24   
torsion grid (165,)
C        0.9462110265   -1.5386762043    0.0590662830
C        2.6022099353   -0.8761159998    1.6964315604
C        0.0165775620   -1.7709307849    1.0650571712
C        1.6907941952   -1.1456704183    2.7117038860
C        2.2299811042   -1.0383470519    0.3472419438
C        0.3881640326   -1.5690659375    2.4007080443
C        4.4205249508    2.4706615980    1.2378775637
C        4.4961037039    0.6718995482    0.1247612471
C        4.0337684631    3.7723280271    1.8596945247
N        3.6674345875    1.7165119330    0.4491575069
N        5.7191323805    0.7374554722    0.6437273261
N        3.0883339410   -0.9664403015   -0.7856820601
N        4.1643494429   -0.3182271278   -0.8362140428
N        5.6393668748    1.8854693888    1.3781761942
O       -0.5492200934   -1.8283228856    3.3638157090
H        0.6957420389   -1.7280331242   -0.9805435976
H        3.6094432899   -0.5821608989    1.9643709437
H       -0.9828210647   -2.1317049666    0.8423515212
H        1.9928838238   -1.0368441803    3.7523270327
H        3.0228912582    3.7024247398    2.2674439090
H        4.7208586999    4.0504207041    2.6637175063
H        4.0382969623    4.5702133511    1.1103043932
H        6.4525400529    2.2112622911    1.8854634851
H       -0.1641079888   -1.6638276147    4.2394068738
24   
torsion grid (180,)
C        0.9543333511   -1.7566081576    0.0764079357
C        2.3657998722   -0.6078529908    1.6729088803
C        0.0790058390   -2.1341528125    1.0860004872
C        1.5053389886   -0.9999786417    2.6924369185
C        2.0910082443   -0.9629321758    0.3343678905
C        0.3527006264   -1.7498159167    2.4046374317
C        4.5423099862    2.5419279684    1.2387484593
C        4.4024300365    0.7676075595    0.0919117819
C        4.3195353779    3.8756622930    1.8730632253
N        3.7172385185    1.9128319634    0.4104831793
N        5.6015857803    0.6495688205    0.6529941960
N        2.8913487080   -0.7867849973   -0.8314400503
N        3.9603883700   -0.1322857597   -0.9125893741
N        5.6599360988    1.7892878311    1.4062000905
O       -0.5252994475   -2.1460377645    3.3746464432
H        0.7813094606   -2.0644733192   -0.9503121456
H        3.2511472290   -0.0499496872    1.9390279322
H       -0.8019229808   -2.7341726451    0.8800986734
H        1.7309726545   -0.7270194795    3.7223159131
H        3.2932137332    3.9451388553    2.2403773197
H        5.0060451624    4.0405945748    2.7081729009
H        4.4677391491    4.6761843489    1.1412772338
H        6.4919881150    1.9878516416    1.9473928613
H       -0.2185265455   -1.8250169678    4.2378466689
