
  -OEChem-12102412493D

 18 18  0     0  0  0  0  0  0999 V2000
    2.9794    0.0138    1.2460 C   0  0  0  0  0  0  0  0  0  0  0  0
    3.9980   -0.3343    1.3598 H   0  0  0  0  0  0  0  0  0  0  0  0
    2.4446    1.0398    1.8621 N   0  0  0  0  0  0  0  0  0  0  0  0
    1.1279    1.1388    1.4298 N   0  0  0  0  0  0  0  0  0  0  0  0
    0.9291    0.1619    0.5655 C   0  0  0  0  0  0  0  0  0  0  0  0
   -0.5595   -0.1922   -0.3025 S   0  0  0  0  0  0  0  0  0  0  0  0
   -1.5602    1.2116    0.3008 C   0  0  0  0  0  0  0  0  0  0  0  0
   -2.5377    1.1042   -0.1738 H   0  0  0  0  0  0  0  0  0  0  0  0
   -1.0987    2.1560    0.0119 H   0  0  0  0  0  0  0  0  0  0  0  0
   -1.6567    1.1659    1.3855 H   0  0  0  0  0  0  0  0  0  0  0  0
    2.0730   -0.5834    0.4001 N   0  0  0  0  0  0  0  0  0  0  0  0
    2.2576   -1.7866   -0.4093 C   0  0  0  0  0  0  0  0  0  0  0  0
    1.7415   -3.0469    0.2883 C   0  0  0  0  0  0  0  0  0  0  0  0
    1.8997   -3.9204   -0.3522 H   0  0  0  0  0  0  0  0  0  0  0  0
    0.6719   -2.9651    0.5000 H   0  0  0  0  0  0  0  0  0  0  0  0
    2.2681   -3.2097    1.2334 H   0  0  0  0  0  0  0  0  0  0  0  0
    1.7470   -1.6332   -1.3647 H   0  0  0  0  0  0  0  0  0  0  0  0
    3.3258   -1.8714   -0.6263 H   0  0  0  0  0  0  0  0  0  0  0  0
  1  2  1  0  0  0  0
  1  3  2  0  0  0  0
  1 11  1  0  0  0  0
  3  4  1  0  0  0  0
  4  5  2  0  0  0  0
  5  6  1  0  0  0  0
  5 11  1  0  0  0  0
  6  7  1  0  0  0  0
  7  8  1  0  0  0  0
  7  9  1  0  0  0  0
  7 10  1  0  0  0  0
 11 12  1  0  0  0  0
 12 13  1  0  0  0  0
 12 17  1  0  0  0  0
 12 18  1  0  0  0  0
 13 14  1  0  0  0  0
 13 15  1  0  0  0  0
 13 16  1  0  0  0  0
M  END
$$$$
