44
0 1 BrC15H20N5O2S
N                    -1.886608986335    -0.225591467598    -1.453279056157
S                    -3.412192350591    -0.456203308186    -1.274847866866
O                    -4.389436240657     0.631147367829    -1.007870666729
C                    -3.764044294131    -1.738623785605    -0.048995411956
C                    -2.820808459061    -2.746734465949     0.175861536507
H                    -1.881388462648    -2.739760682911    -0.369916889322
C                    -3.090169597240    -3.736283102023     1.113084891860
H                    -2.356847407674    -4.520260224444     1.291633240985
C                    -4.298883626870    -3.732002322978     1.843818732810
N                    -4.475705080254    -4.768336426432     2.763847755311
C                    -5.508383294155    -5.071805739934     3.631392003081
N                    -6.595461644994    -4.293105800204     3.679164576462
C                    -7.537777780655    -4.681895307902     4.559642142807
H                    -8.432398809187    -4.065466776641     4.617295798822
C                    -7.404633418300    -5.796682689851     5.359421660928
Br                   -8.779039754229    -6.294883718728     6.596413968178
C                    -6.209732808323    -6.566324528637     5.237175195216
N                    -5.984361277357    -7.661788978280     5.995982458704
C                    -4.836352097204    -8.550034786700     5.829504578253
C                    -5.083314947383    -9.585114629037     4.724977931835
H                    -4.195284207165   -10.209933058594     4.578273699795
H                    -5.923573505811   -10.233975436686     4.985655573618
H                    -5.305117776033    -9.077133616833     3.782697774932
C                    -4.533591611284    -9.198134780398     7.187523767080
O                    -5.749444013940    -9.854087075972     7.593707387902
H                    -5.638284181216   -10.177025782157     8.501001972499
C                    -4.063162982488    -8.191692786302     8.235565313058
H                    -3.864142714453    -8.690402306853     9.191667515202
H                    -3.133781149671    -7.708346724831     7.916508381010
H                    -4.818460478126    -7.417769708086     8.397831302753
H                    -3.749104737748    -9.951532984942     7.026121590388
H                    -3.983229224910    -7.927518569057     5.550742522258
H                    -6.745091242739    -8.013811475634     6.566560398795
N                    -5.272848682020    -6.182788099609     4.356390182205
H                    -3.720300447398    -5.439378818722     2.829256662102
C                    -5.234915074058    -2.704103785813     1.616148133243
H                    -6.155923905207    -2.690834280956     2.181099459056
C                    -4.959709739807    -1.715947928282     0.671333392130
H                    -5.667140055761    -0.910544013135     0.498892520614
C                    -3.848288761017    -1.260967458670    -2.826127335624
H                    -4.906743863613    -1.518735752941    -2.777514899800
H                    -3.658981556560    -0.530267326308    -3.614113499302
H                    -3.227426529081    -2.146168540173    -2.961677247619
H                    -1.509611854103     0.253956117521    -0.631829826510
