
  -OEChem-12102412493D

 18 18  0     0  0  0  0  0  0999 V2000
    2.9353   -0.0612    1.3419 C   0  0  0  0  0  0  0  0  0  0  0  0
    3.9204   -0.4683    1.5308 H   0  0  0  0  0  0  0  0  0  0  0  0
    2.4271    1.0110    1.8991 N   0  0  0  0  0  0  0  0  0  0  0  0
    1.1481    1.1766    1.3822 N   0  0  0  0  0  0  0  0  0  0  0  0
    0.9424    0.1882    0.5326 C   0  0  0  0  0  0  0  0  0  0  0  0
   -0.5114   -0.1041   -0.4138 S   0  0  0  0  0  0  0  0  0  0  0  0
   -1.5348    1.2595    0.2415 C   0  0  0  0  0  0  0  0  0  0  0  0
   -2.4905    1.1907   -0.2821 H   0  0  0  0  0  0  0  0  0  0  0  0
   -1.0579    2.2185    0.0389 H   0  0  0  0  0  0  0  0  0  0  0  0
   -1.6798    1.1403    1.3153 H   0  0  0  0  0  0  0  0  0  0  0  0
    2.0403   -0.6377    0.4699 N   0  0  0  0  0  0  0  0  0  0  0  0
    2.2478   -1.7998   -0.3921 C   0  0  0  0  0  0  0  0  0  0  0  0
    2.6731   -1.4097   -1.8093 C   0  0  0  0  0  0  0  0  0  0  0  0
    2.8165   -2.3083   -2.4176 H   0  0  0  0  0  0  0  0  0  0  0  0
    3.6126   -0.8492   -1.7913 H   0  0  0  0  0  0  0  0  0  0  0  0
    1.9110   -0.7886   -2.2879 H   0  0  0  0  0  0  0  0  0  0  0  0
    3.0073   -2.4258    0.0838 H   0  0  0  0  0  0  0  0  0  0  0  0
    1.3194   -2.3784   -0.4093 H   0  0  0  0  0  0  0  0  0  0  0  0
  1  2  1  0  0  0  0
  1  3  2  0  0  0  0
  1 11  1  0  0  0  0
  3  4  1  0  0  0  0
  4  5  2  0  0  0  0
  5  6  1  0  0  0  0
  5 11  1  0  0  0  0
  6  7  1  0  0  0  0
  7  8  1  0  0  0  0
  7  9  1  0  0  0  0
  7 10  1  0  0  0  0
 11 12  1  0  0  0  0
 12 13  1  0  0  0  0
 12 17  1  0  0  0  0
 12 18  1  0  0  0  0
 13 14  1  0  0  0  0
 13 15  1  0  0  0  0
 13 16  1  0  0  0  0
M  END
$$$$
