17
0 1 C4H6O6S
O                    -0.928902848065    -1.848916000541     1.239920588721
C                    -0.417204535292    -2.245785382774     0.052870920634
O                    -0.399212182039    -3.391631058944    -0.335590454858
C                     0.130783157766    -1.065378391545    -0.724801288159
S                    -1.128276532391    -0.494111028800    -1.945892486992
O                    -2.401905656514    -0.336675225806    -1.241462838660
O                    -1.015059814308    -1.312075398968    -3.154564108360
C                    -0.450155119591     1.178886860899    -2.322558020907
C                    -1.132027091747     1.745626133629    -3.552337648067
O                    -2.186842322984     2.338663592815    -3.539676935132
O                    -0.404309439187     1.504151131589    -4.665944266323
H                    -0.920627431966     1.845563721121    -5.422212987354
H                     0.621581389057     1.059847129708    -2.488932616551
H                    -0.665766114492     1.806846179455    -1.458049085993
H                     0.343438814364    -0.225290969027    -0.062139290143
H                     1.006996471269    -1.369772468681    -1.297283699989
H                    -1.313293797745    -2.641745072340     1.662721225934
