35
-1 1 C12H16NO4S2
S                     2.624760367748     1.098976688750     0.874572573102
C                     2.643699821205    -0.694229582968     0.457266964963
C                     1.589243948920    -1.119620468541    -0.572774030807
C                     0.161930718890    -0.708039372465    -0.179892120567
O                    -0.501670013040     0.055967819133    -0.886869778336
N                    -0.279918260574    -1.257223111854     0.974880637560
C                    -1.643522517977    -1.172765222507     1.467978842346
C                    -1.812665218443    -0.095076734972     2.533673761239
H                    -2.846379391986    -0.073164612659     2.886596537198
H                    -1.160049332264    -0.302206432089     3.387332351374
H                    -1.544399810471     0.878773605142     2.110081903553
S                    -2.011255069609    -2.868067063785     2.143404383013
O                    -3.202122814772    -2.701813067628     3.013165602831
O                    -2.228810944221    -3.718089804308     0.936503901893
O                    -0.738563938551    -3.195155715243     2.871416115224
H                    -2.312819080564    -1.010870387124     0.621887010064
H                     0.294573823424    -1.913733498881     1.498785634513
C                     1.698371180227    -2.642884433209    -0.843557126361
C                     0.817856206346    -3.098060317382    -1.986467467126
C                    -0.485846185662    -3.558617642740    -1.749981801833
H                    -0.884638185121    -3.621442354956    -0.738222555748
C                    -1.300839072331    -3.933938976580    -2.823001522883
H                    -2.310171337099    -4.282511243813    -2.618765943558
C                    -0.829644729402    -3.858797373738    -4.137915359616
H                    -1.468714033536    -4.152077226587    -4.968374058820
C                     0.471192850649    -3.401420752673    -4.379421895326
H                     0.849604087265    -3.339565482523    -5.397899056684
C                     1.285151169412    -3.023872540586    -3.307654604439
H                     2.296811411732    -2.666767057993    -3.498430545536
H                     1.443351315969    -3.197793499593     0.065165040765
H                     2.746962530744    -2.871785428000    -1.073391997218
H                     1.783549327384    -0.590167471876    -1.510500676022
H                     2.492050787973    -1.202280504774     1.414340889928
H                     3.640437710694    -0.965888614975     0.096176952603
H                     2.492563057972     1.543656369408    -0.393253307973
