23
0 1 C4H11N2O5P
O                     0.513112268988     0.750359229783    -3.034810458902
C                     1.025485171578     1.379428481663    -1.938842973403
O                     0.803405440369     2.550634446477    -1.705040765746
C                     1.859699780120     0.446965726208    -1.056895294558
N                     2.665517543596     1.171892387032    -0.079590300401
H                     3.369785972799     1.725092253360    -0.565167801626
H                     2.073747109280     1.850612966021     0.399517220950
C                     0.945350543623    -0.556240179907    -0.322110131092
N                     0.402551777081    -1.574282278221    -1.219087617494
C                    -0.481397070054    -2.507734743230    -0.534975791667
P                    -0.923996311676    -3.860831954277    -1.668809383284
O                     0.060591467969    -4.927948767044    -1.976531096058
O                    -1.428705849820    -3.058223131989    -3.000072467446
H                    -0.930605084149    -3.360543871648    -3.779265065868
O                    -2.299503182741    -4.375932860640    -0.974445320511
H                    -2.484407907978    -5.303894043150    -1.202899298145
H                     0.046841247950    -2.971106328246     0.304977473844
H                    -1.410126623166    -2.064630899387    -0.136256876873
H                    -0.096085066272    -1.140376343941    -1.992313599987
H                     1.576003109593    -1.047206160374     0.424252815897
H                     0.161712168702    -0.001048310638     0.227537887214
H                     2.518241498538    -0.138134302364    -1.706247935382
H                    -0.022865953652     1.414743720788    -3.511207026570
