18
0 1 C5H9N3S
C                     2.951598665467     0.007223078422     1.314878614698
H                     3.956043513019    -0.354579539846     1.479512354904
N                     2.418890757989     1.055619829311     1.896214912694
N                     1.121951356568     1.181451602919     1.417223820913
C                     0.929920985018     0.195671846316     0.562192867891
S                    -0.532222842480    -0.143601872432    -0.353468320621
C                    -1.558183675577     1.234988202026     0.265493207318
H                    -2.521637646749     1.137884443165    -0.239040802746
H                    -1.094265424043     2.190149765219     0.019099804736
H                    -1.684475642855     1.155459577229     1.345301324754
N                     2.055941804296    -0.586700339834     0.452690058351
C                     2.211143384065    -1.767558417594    -0.400784547452
C                     3.591352677286    -2.405400295188    -0.284574115135
H                     3.637253889547    -3.276633421417    -0.943752486656
H                     3.793377057886    -2.744851648142     0.735583892964
H                     4.381852422130    -1.712584694894    -0.587689858884
H                     1.436777061725    -2.491431655928    -0.124760443762
H                     2.020896376757    -1.466447657503    -1.436625029112
