
  -OEChem-12102412493D

 18 18  0     0  0  0  0  0  0999 V2000
    2.9516    0.0072    1.3149 C   0  0  0  0  0  0  0  0  0  0  0  0
    3.9560   -0.3546    1.4795 H   0  0  0  0  0  0  0  0  0  0  0  0
    2.4189    1.0556    1.8962 N   0  0  0  0  0  0  0  0  0  0  0  0
    1.1220    1.1815    1.4172 N   0  0  0  0  0  0  0  0  0  0  0  0
    0.9299    0.1957    0.5622 C   0  0  0  0  0  0  0  0  0  0  0  0
   -0.5322   -0.1436   -0.3535 S   0  0  0  0  0  0  0  0  0  0  0  0
   -1.5582    1.2350    0.2655 C   0  0  0  0  0  0  0  0  0  0  0  0
   -2.5216    1.1379   -0.2390 H   0  0  0  0  0  0  0  0  0  0  0  0
   -1.0943    2.1901    0.0191 H   0  0  0  0  0  0  0  0  0  0  0  0
   -1.6845    1.1555    1.3453 H   0  0  0  0  0  0  0  0  0  0  0  0
    2.0559   -0.5867    0.4527 N   0  0  0  0  0  0  0  0  0  0  0  0
    2.2111   -1.7676   -0.4008 C   0  0  0  0  0  0  0  0  0  0  0  0
    3.5914   -2.4054   -0.2846 C   0  0  0  0  0  0  0  0  0  0  0  0
    3.6373   -3.2766   -0.9438 H   0  0  0  0  0  0  0  0  0  0  0  0
    3.7934   -2.7449    0.7356 H   0  0  0  0  0  0  0  0  0  0  0  0
    4.3819   -1.7126   -0.5877 H   0  0  0  0  0  0  0  0  0  0  0  0
    1.4368   -2.4914   -0.1248 H   0  0  0  0  0  0  0  0  0  0  0  0
    2.0209   -1.4664   -1.4366 H   0  0  0  0  0  0  0  0  0  0  0  0
  1  2  1  0  0  0  0
  1  3  2  0  0  0  0
  1 11  1  0  0  0  0
  3  4  1  0  0  0  0
  4  5  2  0  0  0  0
  5  6  1  0  0  0  0
  5 11  1  0  0  0  0
  6  7  1  0  0  0  0
  7  8  1  0  0  0  0
  7  9  1  0  0  0  0
  7 10  1  0  0  0  0
 11 12  1  0  0  0  0
 12 13  1  0  0  0  0
 12 17  1  0  0  0  0
 12 18  1  0  0  0  0
 13 14  1  0  0  0  0
 13 15  1  0  0  0  0
 13 16  1  0  0  0  0
M  END
$$$$
