
  -OEChem-12102412493D

 20 19  0     1  0  0  0  0  0999 V2000
   -2.4326   -1.1513    0.1809 O   0  0  0  0  0  0  0  0  0  0  0  0
   -2.0521   -1.1346   -1.3931 P   0  0  0  0  0  0  0  0  0  0  0  0
   -3.1201   -0.7497   -2.3481 O   0  0  0  0  0  0  0  0  0  0  0  0
   -1.5006   -2.6436   -1.6210 O   0  0  0  0  0  0  0  0  0  0  0  0
   -1.7255   -2.9602   -2.5130 H   0  0  0  0  0  0  0  0  0  0  0  0
   -0.6128   -0.0258   -1.3777 C   0  0  0  0  0  0  0  0  0  0  0  0
    0.5040   -0.3817   -0.3929 C   0  0  0  0  0  0  0  0  0  0  0  0
    1.1678   -1.3911   -0.5472 O   0  0  0  0  0  0  0  0  0  0  0  0
    0.7965    0.6200    0.7345 C   0  0  2  0  0  0  0  0  0  0  0  0
    2.0084    0.3182    1.4876 N   0  0  0  0  0  0  0  0  0  0  0  0
    1.8753   -0.5681    1.9749 H   0  0  0  0  0  0  0  0  0  0  0  0
    2.7736    0.1445    0.8364 H   0  0  0  0  0  0  0  0  0  0  0  0
   -0.3962    0.7527    1.6949 C   0  0  0  0  0  0  0  0  0  0  0  0
   -0.1521    1.5002    2.4536 H   0  0  0  0  0  0  0  0  0  0  0  0
   -0.5958   -0.2015    2.1924 H   0  0  0  0  0  0  0  0  0  0  0  0
   -1.3125    1.0520    1.1822 H   0  0  0  0  0  0  0  0  0  0  0  0
    0.9374    1.5935    0.2404 H   0  0  0  0  0  0  0  0  0  0  0  0
   -1.0038    0.9831   -1.2206 H   0  0  0  0  0  0  0  0  0  0  0  0
   -0.2022   -0.0757   -2.3912 H   0  0  0  0  0  0  0  0  0  0  0  0
   -3.2523   -1.6449    0.3617 H   0  0  0  0  0  0  0  0  0  0  0  0
  1  2  1  0  0  0  0
  1 20  1  0  0  0  0
  2  3  2  0  0  0  0
  2  4  1  0  0  0  0
  2  6  1  0  0  0  0
  4  5  1  0  0  0  0
  6  7  1  0  0  0  0
  6 18  1  0  0  0  0
  6 19  1  0  0  0  0
  7  8  2  0  0  0  0
  7  9  1  0  0  0  0
  9 10  1  0  0  0  0
  9 13  1  0  0  0  0
  9 17  1  0  0  0  0
 10 11  1  0  0  0  0
 10 12  1  0  0  0  0
 13 14  1  0  0  0  0
 13 15  1  0  0  0  0
 13 16  1  0  0  0  0
M  END
$$$$
