20
0 1 C4H10NO4P
O                    -2.432609613674    -1.151338498574     0.180904706452
P                    -2.052115519682    -1.134641930973    -1.393050280957
O                    -3.120121122616    -0.749700906874    -2.348099409868
O                    -1.500568437827    -2.643640214684    -1.620960243251
H                    -1.725487961495    -2.960211267992    -2.512970644807
C                    -0.612839693752    -0.025791515153    -1.377722747718
C                     0.503969145142    -0.381671164029    -0.392913126403
O                     1.167845562523    -1.391143946514    -0.547248421911
C                     0.796486744679     0.619961905705     0.734517188126
N                     2.008380441415     0.318201427127     1.487611401530
H                     1.875252398885    -0.568143513251     1.974932451704
H                     2.773606217002     0.144500050204     0.836439084323
C                    -0.396216356388     0.752692567901     1.694894649998
H                    -0.152142247560     1.500237088225     2.453565084134
H                    -0.595848051647    -0.201543273848     2.192356016138
H                    -1.312477515438     1.051962452770     1.182212639124
H                     0.937357311272     1.593518848807     0.240366296407
H                    -1.003772554364     0.983144909186    -1.220609308897
H                    -0.202180900636    -0.075723036303    -2.391213937895
H                    -3.252268403979    -1.644931653388     0.361703349915
