
  -OEChem-12122420533D

 23 22  0     1  0  0  0  0  0999 V2000
    2.2355    1.4090   -3.1903 O   0  0  0  0  0  0  0  0  0  0  0  0
    1.2606    0.9429   -2.3648 C   0  0  0  0  0  0  0  0  0  0  0  0
    0.0767    1.0730   -2.6182 O   0  0  0  0  0  0  0  0  0  0  0  0
    1.8423    0.3313   -1.0919 C   0  0  1  0  0  0  0  0  0  0  0  0
    2.3555    1.3737   -0.1902 N   0  0  0  0  0  0  0  0  0  0  0  0
    3.1065    1.8915   -0.6431 H   0  0  0  0  0  0  0  0  0  0  0  0
    1.6170    2.0418    0.0282 H   0  0  0  0  0  0  0  0  0  0  0  0
    0.8038   -0.5141   -0.3565 C   0  0  0  0  0  0  0  0  0  0  0  0
    0.2931   -1.5878   -1.2112 N   0  0  0  0  0  0  0  0  0  0  0  0
   -0.5172   -2.5589   -0.4763 C   0  0  0  0  0  0  0  0  0  0  0  0
   -0.8774   -3.9234   -1.6216 P   0  0  0  0  0  0  0  0  0  0  0  0
   -1.5380   -3.5344   -2.8935 O   0  0  0  0  0  0  0  0  0  0  0  0
   -1.6780   -4.9495   -0.6598 O   0  0  0  0  0  0  0  0  0  0  0  0
   -2.1693   -5.6199   -1.1662 H   0  0  0  0  0  0  0  0  0  0  0  0
    0.5335   -4.7127   -1.8192 O   0  0  0  0  0  0  0  0  0  0  0  0
    1.0402   -4.3247   -2.5534 H   0  0  0  0  0  0  0  0  0  0  0  0
    0.0583   -2.9665    0.3603 H   0  0  0  0  0  0  0  0  0  0  0  0
   -1.4646   -2.1620   -0.0770 H   0  0  0  0  0  0  0  0  0  0  0  0
   -0.2820   -1.1750   -1.9447 H   0  0  0  0  0  0  0  0  0  0  0  0
    1.3069   -0.9562    0.5078 H   0  0  0  0  0  0  0  0  0  0  0  0
    0.0008    0.1383    0.0263 H   0  0  0  0  0  0  0  0  0  0  0  0
    2.6801   -0.3099   -1.3797 H   0  0  0  0  0  0  0  0  0  0  0  0
    1.7832    1.8276   -3.9486 H   0  0  0  0  0  0  0  0  0  0  0  0
  1  2  1  0  0  0  0
  1 23  1  0  0  0  0
  2  3  2  0  0  0  0
  2  4  1  0  0  0  0
  4  5  1  0  0  0  0
  4  8  1  0  0  0  0
  4 22  1  0  0  0  0
  5  6  1  0  0  0  0
  5  7  1  0  0  0  0
  8  9  1  0  0  0  0
  8 20  1  0  0  0  0
  8 21  1  0  0  0  0
  9 10  1  0  0  0  0
  9 19  1  0  0  0  0
 10 11  1  0  0  0  0
 10 17  1  0  0  0  0
 10 18  1  0  0  0  0
 11 12  2  0  0  0  0
 11 13  1  0  0  0  0
 11 15  1  0  0  0  0
 13 14  1  0  0  0  0
 15 16  1  0  0  0  0
M  END
$$$$
