20
0 1 C4H10NO4P
O                    -1.478398119369    -2.437767398111    -1.260849023518
P                    -1.733000468100    -0.911106697846    -1.763051219495
O                    -2.909801629941    -0.759776192252    -2.651168030387
O                    -0.287167427433    -0.535708580393    -2.400494922988
H                    -0.216519052411    -0.802636963932    -3.334708022028
C                    -1.719403884101     0.103959948139    -0.257286293209
C                    -0.636011834630    -0.269367567682     0.754704626658
O                    -0.925446505946    -0.923892889282     1.742819388287
C                     0.813805391841     0.149079734997     0.464163451086
N                     1.622983674027    -1.027272806280     0.107316577396
H                     1.521424375346    -1.734379847877     0.835352794637
H                     1.275593578099    -1.435755500995    -0.759112228314
C                     1.415048357524     0.854353542691     1.680853144384
H                     2.452358697680     1.122761505711     1.465142261993
H                     1.392398197047     0.193517089632     2.552333470455
H                     0.856895551258     1.763059442909     1.930857842755
H                     0.830374623529     0.821805191281    -0.397999477209
H                    -2.699396304723    -0.032905646571     0.206816313081
H                    -1.617342449166     1.142534497943    -0.588846465638
H                    -2.283314805184    -2.977997723684    -1.344119910172
