
  -OEChem-12102412493D

 35 35  0     1  0  0  0  0  0999 V2000
    4.3053   -0.5364   -0.1993 S   0  0  0  0  0  0  0  0  0  0  0  0
    2.5608   -0.5219    0.4016 C   0  0  0  0  0  0  0  0  0  0  0  0
    1.5341   -1.0708   -0.6043 C   0  0  2  0  0  0  0  0  0  0  0  0
    0.1251   -0.6586   -0.1408 C   0  0  0  0  0  0  0  0  0  0  0  0
   -0.4985    0.2376   -0.7191 O   0  0  0  0  0  0  0  0  0  0  0  0
   -0.3242   -1.3043    0.9611 N   0  0  0  0  0  0  0  0  0  0  0  0
   -1.6633   -1.1672    1.5116 C   0  0  2  0  0  0  0  0  0  0  0  0
   -1.7113   -0.1911    2.6827 C   0  0  0  0  0  0  0  0  0  0  0  0
   -2.7260   -0.1324    3.0827 H   0  0  0  0  0  0  0  0  0  0  0  0
   -1.0446   -0.5282    3.4826 H   0  0  0  0  0  0  0  0  0  0  0  0
   -1.3913    0.8007    2.3439 H   0  0  0  0  0  0  0  0  0  0  0  0
   -2.1503   -2.8856    2.0368 S   0  0  0  0  0  0  0  0  0  0  0  0
   -3.2882   -2.7056    2.9721 O   0  0  0  0  0  0  0  0  0  0  0  0
   -2.4853   -3.5910    0.7668 O   0  0  0  0  0  0  0  0  0  0  0  0
   -0.8831   -3.3822    2.6720 O   0  5  0  0  0  0  0  0  0  0  0  0
   -2.3427   -0.8694    0.7120 H   0  0  0  0  0  0  0  0  0  0  0  0
    0.2059   -2.0665    1.3785 H   0  0  0  0  0  0  0  0  0  0  0  0
    1.6925   -2.5879   -0.8437 C   0  0  0  0  0  0  0  0  0  0  0  0
    0.8241   -3.0908   -1.9759 C   0  0  0  0  0  0  0  0  0  0  0  0
   -0.4753   -3.5633   -1.7388 C   0  0  0  0  0  0  0  0  0  0  0  0
   -0.8890   -3.6025   -0.7329 H   0  0  0  0  0  0  0  0  0  0  0  0
   -1.2764   -3.9816   -2.8064 C   0  0  0  0  0  0  0  0  0  0  0  0
   -2.2822   -4.3374   -2.5977 H   0  0  0  0  0  0  0  0  0  0  0  0
   -0.7946   -3.9385   -4.1189 C   0  0  0  0  0  0  0  0  0  0  0  0
   -1.4219   -4.2657   -4.9456 H   0  0  0  0  0  0  0  0  0  0  0  0
    0.5018   -3.4691   -4.3623 C   0  0  0  0  0  0  0  0  0  0  0  0
    0.8885   -3.4323   -5.3789 H   0  0  0  0  0  0  0  0  0  0  0  0
    1.3012   -3.0483   -3.2955 C   0  0  0  0  0  0  0  0  0  0  0  0
    2.3098   -2.6836   -3.4866 H   0  0  0  0  0  0  0  0  0  0  0  0
    1.4635   -3.1390    0.0749 H   0  0  0  0  0  0  0  0  0  0  0  0
    2.7461   -2.7795   -1.0728 H   0  0  0  0  0  0  0  0  0  0  0  0
    1.6664   -0.5503   -1.5569 H   0  0  0  0  0  0  0  0  0  0  0  0
    2.3068    0.5013    0.6872 H   0  0  0  0  0  0  0  0  0  0  0  0
    2.5788   -1.1230    1.3155 H   0  0  0  0  0  0  0  0  0  0  0  0
    4.1142    0.3302   -1.2177 H   0  0  0  0  0  0  0  0  0  0  0  0
  1  2  1  0  0  0  0
  1 35  1  0  0  0  0
  2  3  1  0  0  0  0
  2 33  1  0  0  0  0
  2 34  1  0  0  0  0
  3  4  1  0  0  0  0
  3 18  1  0  0  0  0
  3 32  1  0  0  0  0
  4  5  2  0  0  0  0
  4  6  1  0  0  0  0
  6  7  1  0  0  0  0
  6 17  1  0  0  0  0
  7  8  1  0  0  0  0
  7 12  1  0  0  0  0
  7 16  1  0  0  0  0
  8  9  1  0  0  0  0
  8 10  1  0  0  0  0
  8 11  1  0  0  0  0
 12 13  2  0  0  0  0
 12 14  2  0  0  0  0
 12 15  1  0  0  0  0
 18 19  1  0  0  0  0
 18 30  1  0  0  0  0
 18 31  1  0  0  0  0
 19 20  1  0  0  0  0
 19 28  2  0  0  0  0
 20 21  1  0  0  0  0
 20 22  2  0  0  0  0
 22 23  1  0  0  0  0
 22 24  1  0  0  0  0
 24 25  1  0  0  0  0
 24 26  2  0  0  0  0
 26 27  1  0  0  0  0
 26 28  1  0  0  0  0
 28 29  1  0  0  0  0
M  CHG  1  15  -1
M  END
$$$$
