
  -OEChem-12102412493D

 35 35  0     1  0  0  0  0  0999 V2000
    2.5096    1.3354    0.0707 S   0  0  0  0  0  0  0  0  0  0  0  0
    2.3778   -0.4902   -0.1333 C   0  0  0  0  0  0  0  0  0  0  0  0
    1.1082   -0.9542   -0.8522 C   0  0  2  0  0  0  0  0  0  0  0  0
   -0.2160   -0.5708   -0.1806 C   0  0  0  0  0  0  0  0  0  0  0  0
   -1.1743   -0.1874   -0.8545 O   0  0  0  0  0  0  0  0  0  0  0  0
   -0.2538   -0.7608    1.1696 N   0  0  0  0  0  0  0  0  0  0  0  0
   -1.4754   -1.1243    1.8731 C   0  0  2  0  0  0  0  0  0  0  0  0
   -1.6893   -0.2980    3.1343 C   0  0  0  0  0  0  0  0  0  0  0  0
   -2.5884   -0.6344    3.6557 H   0  0  0  0  0  0  0  0  0  0  0  0
   -0.8374   -0.4134    3.8119 H   0  0  0  0  0  0  0  0  0  0  0  0
   -1.7893    0.7609    2.8702 H   0  0  0  0  0  0  0  0  0  0  0  0
   -1.2598   -2.9345    2.2770 S   0  0  0  0  0  0  0  0  0  0  0  0
   -2.3170   -3.2585    3.2694 O   0  0  0  0  0  0  0  0  0  0  0  0
   -1.3784   -3.6297    0.9649 O   0  0  0  0  0  0  0  0  0  0  0  0
    0.1425   -2.9566    2.8246 O   0  5  0  0  0  0  0  0  0  0  0  0
   -2.3133   -1.0451    1.1802 H   0  0  0  0  0  0  0  0  0  0  0  0
    0.5471   -1.2271    1.5917 H   0  0  0  0  0  0  0  0  0  0  0  0
    1.0909   -2.4998   -1.0341 C   0  0  0  0  0  0  0  0  0  0  0  0
    2.2754   -3.0071   -1.8213 C   0  0  0  0  0  0  0  0  0  0  0  0
    2.3879   -2.7461   -3.1971 C   0  0  0  0  0  0  0  0  0  0  0  0
    1.5911   -2.2007   -3.6995 H   0  0  0  0  0  0  0  0  0  0  0  0
    3.4982   -3.1806   -3.9257 C   0  0  0  0  0  0  0  0  0  0  0  0
    3.5628   -2.9708   -4.9914 H   0  0  0  0  0  0  0  0  0  0  0  0
    4.5239   -3.8898   -3.2886 C   0  0  0  0  0  0  0  0  0  0  0  0
    5.3889   -4.2301   -3.8534 H   0  0  0  0  0  0  0  0  0  0  0  0
    4.4218   -4.1616   -1.9204 C   0  0  0  0  0  0  0  0  0  0  0  0
    5.2092   -4.7167   -1.4153 H   0  0  0  0  0  0  0  0  0  0  0  0
    3.3073   -3.7232   -1.1966 C   0  0  0  0  0  0  0  0  0  0  0  0
    3.2296   -3.9404   -0.1337 H   0  0  0  0  0  0  0  0  0  0  0  0
    0.1574   -2.7588   -1.5425 H   0  0  0  0  0  0  0  0  0  0  0  0
    1.0359   -2.9868   -0.0567 H   0  0  0  0  0  0  0  0  0  0  0  0
    1.0800   -0.4873   -1.8416 H   0  0  0  0  0  0  0  0  0  0  0  0
    2.4463   -0.8932    0.8812 H   0  0  0  0  0  0  0  0  0  0  0  0
    3.2605   -0.8434   -0.6699 H   0  0  0  0  0  0  0  0  0  0  0  0
    2.5084    1.6262   -1.2485 H   0  0  0  0  0  0  0  0  0  0  0  0
  1  2  1  0  0  0  0
  1 35  1  0  0  0  0
  2  3  1  0  0  0  0
  2 33  1  0  0  0  0
  2 34  1  0  0  0  0
  3  4  1  0  0  0  0
  3 18  1  0  0  0  0
  3 32  1  0  0  0  0
  4  5  2  0  0  0  0
  4  6  1  0  0  0  0
  6  7  1  0  0  0  0
  6 17  1  0  0  0  0
  7  8  1  0  0  0  0
  7 12  1  0  0  0  0
  7 16  1  0  0  0  0
  8  9  1  0  0  0  0
  8 10  1  0  0  0  0
  8 11  1  0  0  0  0
 12 13  2  0  0  0  0
 12 14  2  0  0  0  0
 12 15  1  0  0  0  0
 18 19  1  0  0  0  0
 18 30  1  0  0  0  0
 18 31  1  0  0  0  0
 19 20  1  0  0  0  0
 19 28  2  0  0  0  0
 20 21  1  0  0  0  0
 20 22  2  0  0  0  0
 22 23  1  0  0  0  0
 22 24  1  0  0  0  0
 24 25  1  0  0  0  0
 24 26  2  0  0  0  0
 26 27  1  0  0  0  0
 26 28  1  0  0  0  0
 28 29  1  0  0  0  0
M  CHG  1  15  -1
M  END
$$$$
