
  -OEChem-12102412493D

 48 49  0     1  0  0  0  0  0999 V2000
   -0.5168   -8.2318   -1.6735 N   0  0  0  0  0  0  0  0  0  0  0  0
   -0.3826   -8.4111   -0.1446 S   0  0  2  0  0  0  0  0  0  0  0  0
   -0.5879   -9.7902    0.3391 O   0  0  0  0  0  0  0  0  0  0  0  0
   -1.4947   -7.3451    0.8137 C   0  0  0  0  0  0  0  0  0  0  0  0
   -2.3552   -7.9424    1.7287 C   0  0  0  0  0  0  0  0  0  0  0  0
   -2.2912   -9.0180    1.8650 H   0  0  0  0  0  0  0  0  0  0  0  0
   -3.2808   -7.1924    2.4533 C   0  0  0  0  0  0  0  0  0  0  0  0
   -3.9461   -7.6636    3.1582 H   0  0  0  0  0  0  0  0  0  0  0  0
   -3.3434   -5.8032    2.2564 C   0  0  0  0  0  0  0  0  0  0  0  0
   -4.2194   -4.9508    2.9338 N   0  0  0  0  0  0  0  0  0  0  0  0
   -5.1860   -5.1898    3.8911 C   0  0  0  0  0  0  0  0  0  0  0  0
   -5.7881   -4.0666    4.3331 N   0  0  0  0  0  0  0  0  0  0  0  0
   -6.7323   -4.2540    5.2646 C   0  0  0  0  0  0  0  0  0  0  0  0
   -7.2359   -3.3649    5.6383 H   0  0  0  0  0  0  0  0  0  0  0  0
   -7.0727   -5.5070    5.7482 C   0  0  0  0  0  0  0  0  0  0  0  0
   -8.4318   -5.7146    7.0816 Br  0  0  0  0  0  0  0  0  0  0  0  0
   -6.3858   -6.6289    5.2177 C   0  0  0  0  0  0  0  0  0  0  0  0
   -6.6380   -7.9003    5.6253 N   0  0  0  0  0  0  0  0  0  0  0  0
   -6.0768   -9.0906    4.9631 C   0  0  2  0  0  0  0  0  0  0  0  0
   -7.0438  -10.2579    5.1588 C   0  0  0  0  0  0  0  0  0  0  0  0
   -6.7086  -11.1320    4.5969 H   0  0  0  0  0  0  0  0  0  0  0  0
   -7.1053  -10.5405    6.2143 H   0  0  0  0  0  0  0  0  0  0  0  0
   -8.0431   -9.9936    4.7984 H   0  0  0  0  0  0  0  0  0  0  0  0
   -4.6591   -9.3631    5.5166 C   0  0  1  0  0  0  0  0  0  0  0  0
   -4.7038   -9.6304    6.9238 O   0  0  0  0  0  0  0  0  0  0  0  0
   -5.0317   -8.8248    7.3561 H   0  0  0  0  0  0  0  0  0  0  0  0
   -3.9697  -10.5427    4.8461 C   0  0  0  0  0  0  0  0  0  0  0  0
   -2.9296  -10.6024    5.1760 H   0  0  0  0  0  0  0  0  0  0  0  0
   -4.4602  -11.4845    5.1071 H   0  0  0  0  0  0  0  0  0  0  0  0
   -3.9799  -10.4322    3.7568 H   0  0  0  0  0  0  0  0  0  0  0  0
   -4.0670   -8.4565    5.3380 H   0  0  0  0  0  0  0  0  0  0  0  0
   -5.9846   -8.8628    3.8962 H   0  0  0  0  0  0  0  0  0  0  0  0
   -7.4469   -8.0273    6.2210 H   0  0  0  0  0  0  0  0  0  0  0  0
   -5.4376   -6.4426    4.2819 N   0  0  0  0  0  0  0  0  0  0  0  0
   -4.1434   -3.9626    2.7248 H   0  0  0  0  0  0  0  0  0  0  0  0
   -2.4745   -5.1907    1.3253 C   0  0  0  0  0  0  0  0  0  0  0  0
   -2.5314   -4.1173    1.1786 H   0  0  0  0  0  0  0  0  0  0  0  0
   -1.5596   -5.9548    0.6045 C   0  0  0  0  0  0  0  0  0  0  0  0
   -0.6861   -5.4378   -0.3158 O   0  0  0  0  0  0  0  0  0  0  0  0
   -0.7404   -4.0384   -0.5978 C   0  0  0  0  0  0  0  0  0  0  0  0
    0.0144   -3.8621   -1.3645 H   0  0  0  0  0  0  0  0  0  0  0  0
   -0.5008   -3.4470    0.2933 H   0  0  0  0  0  0  0  0  0  0  0  0
   -1.7259   -3.7527   -0.9820 H   0  0  0  0  0  0  0  0  0  0  0  0
    1.2383   -7.8824    0.4958 C   0  0  0  0  0  0  0  0  0  0  0  0
    1.2668   -8.0535    1.5736 H   0  0  0  0  0  0  0  0  0  0  0  0
    1.9732   -8.5069   -0.0170 H   0  0  0  0  0  0  0  0  0  0  0  0
    1.3886   -6.8294    0.2535 H   0  0  0  0  0  0  0  0  0  0  0  0
   -0.5409   -7.2402   -1.9177 H   0  0  0  0  0  0  0  0  0  0  0  0
  1  2  2  0  0  0  0
  1 48  1  0  0  0  0
  2  3  2  0  0  0  0
  2  4  1  0  0  0  0
  2 44  1  0  0  0  0
  4  5  2  0  0  0  0
  4 38  1  0  0  0  0
  5  6  1  0  0  0  0
  5  7  1  0  0  0  0
  7  8  1  0  0  0  0
  7  9  2  0  0  0  0
  9 10  1  0  0  0  0
  9 36  1  0  0  0  0
 10 11  1  0  0  0  0
 10 35  1  0  0  0  0
 11 12  1  0  0  0  0
 11 34  2  0  0  0  0
 12 13  2  0  0  0  0
 13 14  1  0  0  0  0
 13 15  1  0  0  0  0
 15 16  1  0  0  0  0
 15 17  2  0  0  0  0
 17 18  1  0  0  0  0
 17 34  1  0  0  0  0
 18 19  1  0  0  0  0
 18 33  1  0  0  0  0
 19 20  1  0  0  0  0
 19 24  1  0  0  0  0
 19 32  1  0  0  0  0
 20 21  1  0  0  0  0
 20 22  1  0  0  0  0
 20 23  1  0  0  0  0
 24 25  1  0  0  0  0
 24 27  1  0  0  0  0
 24 31  1  0  0  0  0
 25 26  1  0  0  0  0
 27 28  1  0  0  0  0
 27 29  1  0  0  0  0
 27 30  1  0  0  0  0
 36 37  1  0  0  0  0
 36 38  2  0  0  0  0
 38 39  1  0  0  0  0
 39 40  1  0  0  0  0
 40 41  1  0  0  0  0
 40 42  1  0  0  0  0
 40 43  1  0  0  0  0
 44 45  1  0  0  0  0
 44 46  1  0  0  0  0
 44 47  1  0  0  0  0
M  END
$$$$
