
  -OEChem-12122420533D

 48 49  0     1  0  0  0  0  0999 V2000
    0.0168   -9.7436    0.7074 N   0  0  0  0  0  0  0  0  0  0  0  0
   -0.5050   -8.5931   -0.2121 S   0  0  2  0  0  0  0  0  0  0  0  0
    0.4049   -7.6588   -0.9240 O   0  0  0  0  0  0  0  0  0  0  0  0
   -1.7137   -7.5653    0.6371 C   0  0  0  0  0  0  0  0  0  0  0  0
   -1.8532   -6.2181    0.2875 C   0  0  0  0  0  0  0  0  0  0  0  0
   -1.2128   -5.7929   -0.4787 H   0  0  0  0  0  0  0  0  0  0  0  0
   -2.7978   -5.4393    0.9440 C   0  0  0  0  0  0  0  0  0  0  0  0
   -2.9040   -4.3893    0.6800 H   0  0  0  0  0  0  0  0  0  0  0  0
   -3.6172   -5.9890    1.9552 C   0  0  0  0  0  0  0  0  0  0  0  0
   -4.5452   -5.1342    2.5462 N   0  0  0  0  0  0  0  0  0  0  0  0
   -5.4572   -5.3191    3.5709 C   0  0  0  0  0  0  0  0  0  0  0  0
   -6.2243   -4.2353    3.7989 N   0  0  0  0  0  0  0  0  0  0  0  0
   -7.1262   -4.3732    4.7818 C   0  0  0  0  0  0  0  0  0  0  0  0
   -7.7623   -3.5147    4.9871 H   0  0  0  0  0  0  0  0  0  0  0  0
   -7.2650   -5.5382    5.5158 C   0  0  0  0  0  0  0  0  0  0  0  0
   -8.5717   -5.6776    6.9077 Br  0  0  0  0  0  0  0  0  0  0  0  0
   -6.4027   -6.6241    5.2072 C   0  0  0  0  0  0  0  0  0  0  0  0
   -6.4346   -7.7913    5.8864 N   0  0  0  0  0  0  0  0  0  0  0  0
   -5.6315   -8.9608    5.5334 C   0  0  2  0  0  0  0  0  0  0  0  0
   -6.2559   -9.7488    4.3752 C   0  0  0  0  0  0  0  0  0  0  0  0
   -5.6084  -10.5843    4.0868 H   0  0  0  0  0  0  0  0  0  0  0  0
   -7.2303  -10.1502    4.6655 H   0  0  0  0  0  0  0  0  0  0  0  0
   -6.3848   -9.0989    3.5058 H   0  0  0  0  0  0  0  0  0  0  0  0
   -5.4527   -9.8144    6.7967 C   0  0  2  0  0  0  0  0  0  0  0  0
   -6.7811  -10.0968    7.2744 O   0  0  0  0  0  0  0  0  0  0  0  0
   -6.7128  -10.5541    8.1265 H   0  0  0  0  0  0  0  0  0  0  0  0
   -4.6067   -9.1271    7.8667 C   0  0  0  0  0  0  0  0  0  0  0  0
   -4.5099   -9.7647    8.7534 H   0  0  0  0  0  0  0  0  0  0  0  0
   -3.5971   -8.9289    7.4918 H   0  0  0  0  0  0  0  0  0  0  0  0
   -5.0571   -8.1777    8.1695 H   0  0  0  0  0  0  0  0  0  0  0  0
   -4.9662  -10.7523    6.4931 H   0  0  0  0  0  0  0  0  0  0  0  0
   -4.6452   -8.5992    5.2322 H   0  0  0  0  0  0  0  0  0  0  0  0
   -7.1964   -7.9488    6.5371 H   0  0  0  0  0  0  0  0  0  0  0  0
   -5.5009   -6.4886    4.2143 N   0  0  0  0  0  0  0  0  0  0  0  0
   -4.6021   -4.1972    2.1648 H   0  0  0  0  0  0  0  0  0  0  0  0
   -3.4591   -7.3477    2.3001 C   0  0  0  0  0  0  0  0  0  0  0  0
   -4.0771   -7.7714    3.0770 H   0  0  0  0  0  0  0  0  0  0  0  0
   -2.5083   -8.1233    1.6415 C   0  0  0  0  0  0  0  0  0  0  0  0
   -2.3725   -9.1666    1.9134 H   0  0  0  0  0  0  0  0  0  0  0  0
   -1.4978   -9.5122   -1.4250 C   0  0  0  0  0  0  0  0  0  0  0  0
   -0.6901  -10.6634   -2.0412 C   0  0  0  0  0  0  0  0  0  0  0  0
   -0.5664  -11.7703   -1.1695 O   0  0  0  0  0  0  0  0  0  0  0  0
   -0.1658  -11.4162   -0.3464 H   0  0  0  0  0  0  0  0  0  0  0  0
   -1.2306  -11.0127   -2.9263 H   0  0  0  0  0  0  0  0  0  0  0  0
    0.2880  -10.2885   -2.3753 H   0  0  0  0  0  0  0  0  0  0  0  0
   -2.3862   -9.8889   -0.9134 H   0  0  0  0  0  0  0  0  0  0  0  0
   -1.7821   -8.7627   -2.1684 H   0  0  0  0  0  0  0  0  0  0  0  0
    0.6305   -9.3673    1.4339 H   0  0  0  0  0  0  0  0  0  0  0  0
  1  2  2  0  0  0  0
  1 48  1  0  0  0  0
  2  3  2  0  0  0  0
  2  4  1  0  0  0  0
  2 40  1  0  0  0  0
  4  5  2  0  0  0  0
  4 38  1  0  0  0  0
  5  6  1  0  0  0  0
  5  7  1  0  0  0  0
  7  8  1  0  0  0  0
  7  9  2  0  0  0  0
  9 10  1  0  0  0  0
  9 36  1  0  0  0  0
 10 11  1  0  0  0  0
 10 35  1  0  0  0  0
 11 12  1  0  0  0  0
 11 34  2  0  0  0  0
 12 13  2  0  0  0  0
 13 14  1  0  0  0  0
 13 15  1  0  0  0  0
 15 16  1  0  0  0  0
 15 17  2  0  0  0  0
 17 18  1  0  0  0  0
 17 34  1  0  0  0  0
 18 19  1  0  0  0  0
 18 33  1  0  0  0  0
 19 20  1  0  0  0  0
 19 24  1  0  0  0  0
 19 32  1  0  0  0  0
 20 21  1  0  0  0  0
 20 22  1  0  0  0  0
 20 23  1  0  0  0  0
 24 25  1  0  0  0  0
 24 27  1  0  0  0  0
 24 31  1  0  0  0  0
 25 26  1  0  0  0  0
 27 28  1  0  0  0  0
 27 29  1  0  0  0  0
 27 30  1  0  0  0  0
 36 37  1  0  0  0  0
 36 38  2  0  0  0  0
 38 39  1  0  0  0  0
 40 41  1  0  0  0  0
 40 46  1  0  0  0  0
 40 47  1  0  0  0  0
 41 42  1  0  0  0  0
 41 44  1  0  0  0  0
 41 45  1  0  0  0  0
 42 43  1  0  0  0  0
M  END
$$$$
