
  -OEChem-12102412493D

 20 19  0     1  0  0  0  0  0999 V2000
   -1.4784   -2.4378   -1.2608 O   0  0  0  0  0  0  0  0  0  0  0  0
   -1.7330   -0.9111   -1.7631 P   0  0  0  0  0  0  0  0  0  0  0  0
   -2.9098   -0.7598   -2.6512 O   0  0  0  0  0  0  0  0  0  0  0  0
   -0.2872   -0.5357   -2.4005 O   0  0  0  0  0  0  0  0  0  0  0  0
   -0.2165   -0.8026   -3.3347 H   0  0  0  0  0  0  0  0  0  0  0  0
   -1.7194    0.1040   -0.2573 C   0  0  0  0  0  0  0  0  0  0  0  0
   -0.6360   -0.2694    0.7547 C   0  0  0  0  0  0  0  0  0  0  0  0
   -0.9254   -0.9239    1.7428 O   0  0  0  0  0  0  0  0  0  0  0  0
    0.8138    0.1491    0.4642 C   0  0  2  0  0  0  0  0  0  0  0  0
    1.6230   -1.0273    0.1073 N   0  0  0  0  0  0  0  0  0  0  0  0
    1.5214   -1.7344    0.8354 H   0  0  0  0  0  0  0  0  0  0  0  0
    1.2756   -1.4358   -0.7591 H   0  0  0  0  0  0  0  0  0  0  0  0
    1.4150    0.8544    1.6809 C   0  0  0  0  0  0  0  0  0  0  0  0
    2.4524    1.1228    1.4651 H   0  0  0  0  0  0  0  0  0  0  0  0
    1.3924    0.1935    2.5523 H   0  0  0  0  0  0  0  0  0  0  0  0
    0.8569    1.7631    1.9309 H   0  0  0  0  0  0  0  0  0  0  0  0
    0.8304    0.8218   -0.3980 H   0  0  0  0  0  0  0  0  0  0  0  0
   -2.6994   -0.0329    0.2068 H   0  0  0  0  0  0  0  0  0  0  0  0
   -1.6173    1.1425   -0.5888 H   0  0  0  0  0  0  0  0  0  0  0  0
   -2.2833   -2.9780   -1.3441 H   0  0  0  0  0  0  0  0  0  0  0  0
  1  2  1  0  0  0  0
  1 20  1  0  0  0  0
  2  3  2  0  0  0  0
  2  4  1  0  0  0  0
  2  6  1  0  0  0  0
  4  5  1  0  0  0  0
  6  7  1  0  0  0  0
  6 18  1  0  0  0  0
  6 19  1  0  0  0  0
  7  8  2  0  0  0  0
  7  9  1  0  0  0  0
  9 10  1  0  0  0  0
  9 13  1  0  0  0  0
  9 17  1  0  0  0  0
 10 11  1  0  0  0  0
 10 12  1  0  0  0  0
 13 14  1  0  0  0  0
 13 15  1  0  0  0  0
 13 16  1  0  0  0  0
M  END
$$$$
