35
-1 1 C12H16NO4S2
S                     2.298110520617    -0.979920452521     1.883012343462
C                     2.270530079569    -0.489428466665     0.112879457571
C                     1.230387709985    -1.223972288280    -0.763427890722
C                    -0.209163526225    -0.931832722360    -0.305153393516
O                    -0.984367932972    -1.819812021261     0.051316743042
N                    -0.553420517350     0.390612375019    -0.363991543925
C                    -1.625664565153     0.959025578143     0.436579782057
C                    -2.584312141431     1.805016670960    -0.392849445218
H                    -3.350515593082     2.244744406533     0.249495878608
H                    -2.043955289587     2.618880579217    -0.887009925628
H                    -3.059186530852     1.180104862793    -1.157818813279
S                    -0.780837926788     1.989941743060     1.737113725517
O                    -1.838682432968     2.838981187658     2.338111343478
O                    -0.183013313591     0.988859499176     2.676962805271
O                     0.248530542957     2.728220280466     0.933506912052
H                    -2.137126520925     0.147131838976     0.953816791607
H                     0.192144007065     1.063815154438    -0.526990692770
C                     1.457239905244    -2.746037317308    -0.826618730067
C                     2.798588540823    -3.114831356091    -1.413280852723
C                     2.991855980522    -3.140020519409    -2.804118469133
H                     2.151188167023    -2.917621895429    -3.459279814114
C                     4.238502147003    -3.447860529748    -3.356574846772
H                     4.363725763701    -3.463560725454    -4.437246639625
C                     5.323849717939    -3.738060544773    -2.521522746501
H                     6.295574945876    -3.977407481827    -2.947533404424
C                     5.145915240836    -3.717166723457    -1.134037843437
H                     5.982373401998    -3.938227386361    -0.474671053078
C                     3.895638707020    -3.408863614265    -0.588043597974
H                     3.764350984075    -3.385021598540     0.491221244970
H                     0.650690654818    -3.186047607053    -1.419739354744
H                     1.355640754228    -3.144908481678     0.184760180481
H                     1.339772433631    -0.812187824110    -1.778430622684
H                     3.270892880577    -0.696737729485    -0.274776621334
H                     2.129818927610     0.593256808432     0.075388278799
H                     1.253843135299    -0.186821108754     2.273401866082
