
  -OEChem-12122420533D

 48 49  0     1  0  0  0  0  0999 V2000
   -0.9323   -7.8500   -2.0586 N   0  0  0  0  0  0  0  0  0  0  0  0
   -1.3435   -8.7539   -0.8702 S   0  0  2  0  0  0  0  0  0  0  0  0
   -2.1688   -9.9933   -1.0347 O   0  0  0  0  0  0  0  0  0  0  0  0
   -2.1726   -7.6347    0.2368 C   0  0  0  0  0  0  0  0  0  0  0  0
   -1.9219   -6.2595    0.1972 C   0  0  0  0  0  0  0  0  0  0  0  0
   -1.2471   -5.8576   -0.5505 H   0  0  0  0  0  0  0  0  0  0  0  0
   -2.5663   -5.4308    1.1056 C   0  0  0  0  0  0  0  0  0  0  0  0
   -2.3794   -4.3596    1.0771 H   0  0  0  0  0  0  0  0  0  0  0  0
   -3.4674   -5.9552    2.0596 C   0  0  0  0  0  0  0  0  0  0  0  0
   -4.0676   -5.0420    2.9241 N   0  0  0  0  0  0  0  0  0  0  0  0
   -4.9418   -5.2038    3.9846 C   0  0  0  0  0  0  0  0  0  0  0  0
   -5.3211   -4.0363    4.5403 N   0  0  0  0  0  0  0  0  0  0  0  0
   -6.1728   -4.1464    5.5703 C   0  0  0  0  0  0  0  0  0  0  0  0
   -6.4989   -3.2195    6.0377 H   0  0  0  0  0  0  0  0  0  0  0  0
   -6.6320   -5.3653    6.0379 C   0  0  0  0  0  0  0  0  0  0  0  0
   -7.8475   -5.4616    7.5138 Br  0  0  0  0  0  0  0  0  0  0  0  0
   -6.1682   -6.5420    5.3913 C   0  0  0  0  0  0  0  0  0  0  0  0
   -6.5321   -7.7798    5.7914 N   0  0  0  0  0  0  0  0  0  0  0  0
   -6.1591   -9.0059    5.0879 C   0  0  2  0  0  0  0  0  0  0  0  0
   -7.0596   -9.2590    3.8725 C   0  0  0  0  0  0  0  0  0  0  0  0
   -6.7254  -10.1476    3.3259 H   0  0  0  0  0  0  0  0  0  0  0  0
   -8.0946   -9.4151    4.1878 H   0  0  0  0  0  0  0  0  0  0  0  0
   -7.0212   -8.4043    3.1923 H   0  0  0  0  0  0  0  0  0  0  0  0
   -6.1940  -10.1618    6.0976 C   0  0  2  0  0  0  0  0  0  0  0  0
   -7.5166  -10.1507    6.6664 O   0  0  0  0  0  0  0  0  0  0  0  0
   -7.5519  -10.8061    7.3799 H   0  0  0  0  0  0  0  0  0  0  0  0
   -5.1193  -10.0436    7.1766 C   0  0  0  0  0  0  0  0  0  0  0  0
   -5.1832  -10.8811    7.8814 H   0  0  0  0  0  0  0  0  0  0  0  0
   -4.1199  -10.0649    6.7296 H   0  0  0  0  0  0  0  0  0  0  0  0
   -5.2297   -9.1102    7.7357 H   0  0  0  0  0  0  0  0  0  0  0  0
   -6.0458  -11.0944    5.5347 H   0  0  0  0  0  0  0  0  0  0  0  0
   -5.1262   -8.8866    4.7519 H   0  0  0  0  0  0  0  0  0  0  0  0
   -7.2740   -7.8642    6.4777 H   0  0  0  0  0  0  0  0  0  0  0  0
   -5.3172   -6.4319    4.3515 N   0  0  0  0  0  0  0  0  0  0  0  0
   -3.8534   -4.0643    2.7669 H   0  0  0  0  0  0  0  0  0  0  0  0
   -3.7176   -7.3424    2.0732 C   0  0  0  0  0  0  0  0  0  0  0  0
   -4.4199   -7.7471    2.7858 H   0  0  0  0  0  0  0  0  0  0  0  0
   -3.0695   -8.1721    1.1611 C   0  0  0  0  0  0  0  0  0  0  0  0
   -3.2783   -9.2379    1.1498 H   0  0  0  0  0  0  0  0  0  0  0  0
    0.0992   -9.3356    0.1217 C   0  0  0  0  0  0  0  0  0  0  0  0
    0.7185  -10.5820   -0.5200 C   0  0  0  0  0  0  0  0  0  0  0  0
   -0.0634  -11.7476   -0.3290 O   0  0  0  0  0  0  0  0  0  0  0  0
   -0.9587  -11.5425   -0.6628 H   0  0  0  0  0  0  0  0  0  0  0  0
    0.9186  -10.3972   -1.5880 H   0  0  0  0  0  0  0  0  0  0  0  0
    1.6845  -10.7703   -0.0425 H   0  0  0  0  0  0  0  0  0  0  0  0
    0.7974   -8.4952    0.1578 H   0  0  0  0  0  0  0  0  0  0  0  0
   -0.2628   -9.5656    1.1269 H   0  0  0  0  0  0  0  0  0  0  0  0
   -0.4459   -8.3913   -2.7765 H   0  0  0  0  0  0  0  0  0  0  0  0
  1  2  2  0  0  0  0
  1 48  1  0  0  0  0
  2  3  2  0  0  0  0
  2  4  1  0  0  0  0
  2 40  1  0  0  0  0
  4  5  2  0  0  0  0
  4 38  1  0  0  0  0
  5  6  1  0  0  0  0
  5  7  1  0  0  0  0
  7  8  1  0  0  0  0
  7  9  2  0  0  0  0
  9 10  1  0  0  0  0
  9 36  1  0  0  0  0
 10 11  1  0  0  0  0
 10 35  1  0  0  0  0
 11 12  1  0  0  0  0
 11 34  2  0  0  0  0
 12 13  2  0  0  0  0
 13 14  1  0  0  0  0
 13 15  1  0  0  0  0
 15 16  1  0  0  0  0
 15 17  2  0  0  0  0
 17 18  1  0  0  0  0
 17 34  1  0  0  0  0
 18 19  1  0  0  0  0
 18 33  1  0  0  0  0
 19 20  1  0  0  0  0
 19 24  1  0  0  0  0
 19 32  1  0  0  0  0
 20 21  1  0  0  0  0
 20 22  1  0  0  0  0
 20 23  1  0  0  0  0
 24 25  1  0  0  0  0
 24 27  1  0  0  0  0
 24 31  1  0  0  0  0
 25 26  1  0  0  0  0
 27 28  1  0  0  0  0
 27 29  1  0  0  0  0
 27 30  1  0  0  0  0
 36 37  1  0  0  0  0
 36 38  2  0  0  0  0
 38 39  1  0  0  0  0
 40 41  1  0  0  0  0
 40 46  1  0  0  0  0
 40 47  1  0  0  0  0
 41 42  1  0  0  0  0
 41 44  1  0  0  0  0
 41 45  1  0  0  0  0
 42 43  1  0  0  0  0
M  END
$$$$
