
  -OEChem-12122420533D

 35 35  0     1  0  0  0  0  0999 V2000
    2.1510   -1.0133    1.8450 S   0  0  0  0  0  0  0  0  0  0  0  0
    1.9650   -0.2975    0.1642 C   0  0  0  0  0  0  0  0  0  0  0  0
    1.0733   -1.0863   -0.8276 C   0  0  2  0  0  0  0  0  0  0  0  0
   -0.3944   -0.9284   -0.4116 C   0  0  0  0  0  0  0  0  0  0  0  0
   -0.9818   -1.7650    0.2770 O   0  0  0  0  0  0  0  0  0  0  0  0
   -0.9627    0.2359   -0.8453 N   0  0  0  0  0  0  0  0  0  0  0  0
   -1.9873    0.9291   -0.0760 C   0  0  2  0  0  0  0  0  0  0  0  0
   -3.1849    1.3403   -0.9220 C   0  0  0  0  0  0  0  0  0  0  0  0
   -3.9011    1.8954   -0.3113 H   0  0  0  0  0  0  0  0  0  0  0  0
   -2.8627    1.9854   -1.7454 H   0  0  0  0  0  0  0  0  0  0  0  0
   -3.6701    0.4496   -1.3374 H   0  0  0  0  0  0  0  0  0  0  0  0
   -1.1149    2.4177    0.6271 S   0  0  0  0  0  0  0  0  0  0  0  0
   -2.1696    3.2392    1.2734 O   0  0  0  0  0  0  0  0  0  0  0  0
   -0.0950    1.8424    1.5524 O   0  0  0  0  0  0  0  0  0  0  0  0
   -0.5047    3.0238   -0.6042 O   0  5  0  0  0  0  0  0  0  0  0  0
   -2.2755    0.2957    0.7634 H   0  0  0  0  0  0  0  0  0  0  0  0
   -0.3511    0.8940   -1.3260 H   0  0  0  0  0  0  0  0  0  0  0  0
    1.4785   -2.5624   -0.9684 C   0  0  0  0  0  0  0  0  0  0  0  0
    0.9055   -3.2178   -2.2050 C   0  0  0  0  0  0  0  0  0  0  0  0
   -0.4053   -3.7235   -2.2161 C   0  0  0  0  0  0  0  0  0  0  0  0
   -1.0049   -3.6419   -1.3141 H   0  0  0  0  0  0  0  0  0  0  0  0
   -0.9366   -4.2999   -3.3734 C   0  0  0  0  0  0  0  0  0  0  0  0
   -1.9549   -4.6824   -3.3638 H   0  0  0  0  0  0  0  0  0  0  0  0
   -0.1703   -4.3833   -4.5419 C   0  0  0  0  0  0  0  0  0  0  0  0
   -0.5865   -4.8319   -5.4412 H   0  0  0  0  0  0  0  0  0  0  0  0
    1.1354   -3.8819   -4.5429 C   0  0  0  0  0  0  0  0  0  0  0  0
    1.7418   -3.9402   -5.4443 H   0  0  0  0  0  0  0  0  0  0  0  0
    1.6634   -3.3051   -3.3830 C   0  0  0  0  0  0  0  0  0  0  0  0
    2.6807   -2.9168   -3.3905 H   0  0  0  0  0  0  0  0  0  0  0  0
    1.1419   -3.0865   -0.0706 H   0  0  0  0  0  0  0  0  0  0  0  0
    2.5732   -2.6230   -1.0025 H   0  0  0  0  0  0  0  0  0  0  0  0
    1.2067   -0.5928   -1.7999 H   0  0  0  0  0  0  0  0  0  0  0  0
    2.9610   -0.1668   -0.2701 H   0  0  0  0  0  0  0  0  0  0  0  0
    1.5365    0.6906    0.3583 H   0  0  0  0  0  0  0  0  0  0  0  0
    2.9404   -2.0522    1.4892 H   0  0  0  0  0  0  0  0  0  0  0  0
  1  2  1  0  0  0  0
  1 35  1  0  0  0  0
  2  3  1  0  0  0  0
  2 33  1  0  0  0  0
  2 34  1  0  0  0  0
  3  4  1  0  0  0  0
  3 18  1  0  0  0  0
  3 32  1  0  0  0  0
  4  5  2  0  0  0  0
  4  6  1  0  0  0  0
  6  7  1  0  0  0  0
  6 17  1  0  0  0  0
  7  8  1  0  0  0  0
  7 12  1  0  0  0  0
  7 16  1  0  0  0  0
  8  9  1  0  0  0  0
  8 10  1  0  0  0  0
  8 11  1  0  0  0  0
 12 13  2  0  0  0  0
 12 14  2  0  0  0  0
 12 15  1  0  0  0  0
 18 19  1  0  0  0  0
 18 30  1  0  0  0  0
 18 31  1  0  0  0  0
 19 20  1  0  0  0  0
 19 28  2  0  0  0  0
 20 21  1  0  0  0  0
 20 22  2  0  0  0  0
 22 23  1  0  0  0  0
 22 24  1  0  0  0  0
 24 25  1  0  0  0  0
 24 26  2  0  0  0  0
 26 27  1  0  0  0  0
 26 28  1  0  0  0  0
 28 29  1  0  0  0  0
M  CHG  1  15  -1
M  END
$$$$
