44
0 1 BrC15H20N5O2S
N                     0.660823789848    -9.158001763778     1.154667578865
S                     0.053443770840    -8.114208896956     0.178411525066
O                     0.858201946913    -7.120269894528    -0.578791844630
C                    -1.285229852771    -7.168744479689     0.942203262162
C                    -2.031544432964    -7.743664260584     1.972803063776
H                    -1.786897891980    -8.746274143824     2.313674416149
C                    -3.071372312532    -7.036064412127     2.572712857437
H                    -3.652089907117    -7.475068296776     3.369563125692
C                    -3.368966250841    -5.727519461254     2.140476847681
N                    -4.395732179438    -4.942585438267     2.665589157148
C                    -5.299057665075    -5.161644054446     3.689433318445
N                    -6.192558478369    -4.162541938766     3.832316340679
C                    -7.091716047876    -4.338885243497     4.811152286841
H                    -7.828036772480    -3.549602881410     4.948126701553
C                    -7.108266980616    -5.459426850809     5.623657606694
Br                   -8.418234365123    -5.656924866512     7.006032197810
C                    -6.117515985127    -6.453004901462     5.403934121684
N                    -6.023625930050    -7.565376721739     6.165398405114
C                    -5.073091629972    -8.646499680498     5.912477151838
C                    -5.568953864915    -9.592863958320     4.812060048012
H                    -4.814346913787   -10.357110496770     4.595219086520
H                    -6.489860665407   -10.093490216938     5.122350408134
H                    -5.762257182830    -9.031523160990     3.894258686939
C                    -4.812267369060    -9.372658969674     7.239566816427
O                    -6.102076266319    -9.792799083791     7.722278188044
H                    -5.993150857909   -10.164997346029     8.610812609715
C                    -4.087305248071    -8.501318812062     8.263335390051
H                    -3.924599522697    -9.053163540222     9.196769841868
H                    -3.105682548882    -8.197458579479     7.885016045058
H                    -4.665993717933    -7.601187381859     8.488523899787
H                    -4.200154510790   -10.257806741865     7.014780920589
H                    -4.134749636330    -8.185939095408     5.593956011715
H                    -6.774099271607    -7.768045978855     6.816553920944
N                    -5.218554840909    -6.280764387022     4.414622186577
H                    -4.551882187646    -4.047107841168     2.218138429443
C                    -2.596344281800    -5.156274540915     1.105326836445
H                    -2.809516420647    -4.141783406896     0.774804952038
C                    -1.562928675331    -5.868402452929     0.508616802748
H                    -0.958167818927    -5.424323753537    -0.275774813598
C                    -0.820261666026    -9.166844992315    -0.992994114184
H                    -1.333976726066    -8.516019312640    -1.701260641259
H                    -0.058032404020    -9.765749560947    -1.493962020193
H                    -1.521587271967    -9.803583149125    -0.454462643253
H                     1.211229981511    -8.681315429253     1.873519639859
