
  -OEChem-12122420533D

 35 35  0     1  0  0  0  0  0999 V2000
    2.6248    1.0990    0.8746 S   0  0  0  0  0  0  0  0  0  0  0  0
    2.6437   -0.6942    0.4573 C   0  0  0  0  0  0  0  0  0  0  0  0
    1.5892   -1.1196   -0.5728 C   0  0  2  0  0  0  0  0  0  0  0  0
    0.1619   -0.7080   -0.1799 C   0  0  0  0  0  0  0  0  0  0  0  0
   -0.5017    0.0560   -0.8869 O   0  0  0  0  0  0  0  0  0  0  0  0
   -0.2799   -1.2572    0.9749 N   0  0  0  0  0  0  0  0  0  0  0  0
   -1.6435   -1.1728    1.4680 C   0  0  2  0  0  0  0  0  0  0  0  0
   -1.8127   -0.0951    2.5337 C   0  0  0  0  0  0  0  0  0  0  0  0
   -2.8464   -0.0732    2.8866 H   0  0  0  0  0  0  0  0  0  0  0  0
   -1.1600   -0.3022    3.3873 H   0  0  0  0  0  0  0  0  0  0  0  0
   -1.5444    0.8788    2.1101 H   0  0  0  0  0  0  0  0  0  0  0  0
   -2.0113   -2.8681    2.1434 S   0  0  0  0  0  0  0  0  0  0  0  0
   -3.2021   -2.7018    3.0132 O   0  0  0  0  0  0  0  0  0  0  0  0
   -2.2288   -3.7181    0.9365 O   0  0  0  0  0  0  0  0  0  0  0  0
   -0.7386   -3.1952    2.8714 O   0  5  0  0  0  0  0  0  0  0  0  0
   -2.3128   -1.0109    0.6219 H   0  0  0  0  0  0  0  0  0  0  0  0
    0.2946   -1.9137    1.4988 H   0  0  0  0  0  0  0  0  0  0  0  0
    1.6984   -2.6429   -0.8436 C   0  0  0  0  0  0  0  0  0  0  0  0
    0.8179   -3.0981   -1.9865 C   0  0  0  0  0  0  0  0  0  0  0  0
   -0.4858   -3.5586   -1.7500 C   0  0  0  0  0  0  0  0  0  0  0  0
   -0.8846   -3.6214   -0.7382 H   0  0  0  0  0  0  0  0  0  0  0  0
   -1.3008   -3.9339   -2.8230 C   0  0  0  0  0  0  0  0  0  0  0  0
   -2.3102   -4.2825   -2.6188 H   0  0  0  0  0  0  0  0  0  0  0  0
   -0.8296   -3.8588   -4.1379 C   0  0  0  0  0  0  0  0  0  0  0  0
   -1.4687   -4.1521   -4.9684 H   0  0  0  0  0  0  0  0  0  0  0  0
    0.4712   -3.4014   -4.3794 C   0  0  0  0  0  0  0  0  0  0  0  0
    0.8496   -3.3396   -5.3979 H   0  0  0  0  0  0  0  0  0  0  0  0
    1.2852   -3.0239   -3.3077 C   0  0  0  0  0  0  0  0  0  0  0  0
    2.2968   -2.6668   -3.4984 H   0  0  0  0  0  0  0  0  0  0  0  0
    1.4434   -3.1978    0.0652 H   0  0  0  0  0  0  0  0  0  0  0  0
    2.7470   -2.8718   -1.0734 H   0  0  0  0  0  0  0  0  0  0  0  0
    1.7835   -0.5902   -1.5105 H   0  0  0  0  0  0  0  0  0  0  0  0
    2.4921   -1.2023    1.4143 H   0  0  0  0  0  0  0  0  0  0  0  0
    3.6404   -0.9659    0.0962 H   0  0  0  0  0  0  0  0  0  0  0  0
    2.4926    1.5437   -0.3933 H   0  0  0  0  0  0  0  0  0  0  0  0
  1  2  1  0  0  0  0
  1 35  1  0  0  0  0
  2  3  1  0  0  0  0
  2 33  1  0  0  0  0
  2 34  1  0  0  0  0
  3  4  1  0  0  0  0
  3 18  1  0  0  0  0
  3 32  1  0  0  0  0
  4  5  2  0  0  0  0
  4  6  1  0  0  0  0
  6  7  1  0  0  0  0
  6 17  1  0  0  0  0
  7  8  1  0  0  0  0
  7 12  1  0  0  0  0
  7 16  1  0  0  0  0
  8  9  1  0  0  0  0
  8 10  1  0  0  0  0
  8 11  1  0  0  0  0
 12 13  2  0  0  0  0
 12 14  2  0  0  0  0
 12 15  1  0  0  0  0
 18 19  1  0  0  0  0
 18 30  1  0  0  0  0
 18 31  1  0  0  0  0
 19 20  1  0  0  0  0
 19 28  2  0  0  0  0
 20 21  1  0  0  0  0
 20 22  2  0  0  0  0
 22 23  1  0  0  0  0
 22 24  1  0  0  0  0
 24 25  1  0  0  0  0
 24 26  2  0  0  0  0
 26 27  1  0  0  0  0
 26 28  1  0  0  0  0
 28 29  1  0  0  0  0
M  CHG  1  15  -1
M  END
$$$$
