35
-1 1 C12H16NO4S2
S                     2.509567082823     1.335430957959     0.070697297455
C                     2.377815880019    -0.490248109247    -0.133344227296
C                     1.108150917632    -0.954172335191    -0.852187281694
C                    -0.216040221120    -0.570847942179    -0.180569885447
O                    -1.174346991399    -0.187446887265    -0.854480804518
N                    -0.253847392772    -0.760831731451     1.169579305818
C                    -1.475386090312    -1.124343433356     1.873094906354
C                    -1.689331245937    -0.298047051587     3.134255456496
H                    -2.588433204211    -0.634436532283     3.655711945204
H                    -0.837391195836    -0.413350013781     3.811922665913
H                    -1.789335287504     0.760914082008     2.870175316376
S                    -1.259769517884    -2.934475379948     2.277038779340
O                    -2.317031394663    -3.258453072668     3.269389562206
O                    -1.378375329054    -3.629666536117     0.964872488895
O                     0.142518345051    -2.956595632950     2.824564140852
H                    -2.313257525051    -1.045123821592     1.180207528464
H                     0.547073020832    -1.227137080215     1.591695875650
C                     1.090851363184    -2.499758904934    -1.034073278490
C                     2.275352815455    -3.007086145154    -1.821280509188
C                     2.387898208745    -2.746124165872    -3.197098457077
H                     1.591070880322    -2.200721963873    -3.699454892336
C                     3.498173947507    -3.180597314621    -3.925743159318
H                     3.562786405553    -2.970772925436    -4.991375979265
C                     4.523877769816    -3.889823964951    -3.288578533302
H                     5.388895958420    -4.230054192675    -3.853405730016
C                     4.421749864931    -4.161585847841    -1.920381171171
H                     5.209202543895    -4.716729911241    -1.415320783244
C                     3.307336256721    -3.723216547210    -1.196598115217
H                     3.229569262859    -3.940368664902    -0.133668263669
H                     0.157404343409    -2.758837796528    -1.542460984548
H                     1.035906157844    -2.986790399922    -0.056733178716
H                     1.080046935111    -0.487256114839    -1.841593378594
H                     2.446289495458    -0.893248554518     0.881169592550
H                     3.260515249800    -0.843414486644    -0.669942862590
H                     2.508354663749     1.626188821015    -1.248496016548
