18
0 1 C5H9N3S
C                     2.935319650437    -0.061186400739     1.341893502894
H                     3.920353267173    -0.468279158593     1.530764194361
N                     2.427136974089     1.010989578999     1.899061002361
N                     1.148147337739     1.176579388964     1.382211302904
C                     0.942395004233     0.188206113684     0.532631197950
S                    -0.511412419493    -0.104078886009    -0.413846450797
C                    -1.534785126230     1.259539230545     0.241518643285
H                    -2.490461129048     1.190736609759    -0.282108350421
H                    -1.057930793816     2.218495153092     0.038913728825
H                    -1.679802574159     1.140291373957     1.315335601553
N                     2.040303543491    -0.637667291448     0.469917036145
C                     2.247838743813    -1.799791305301    -0.392123297666
C                     2.673055561835    -1.409660015868    -1.809340482696
H                     2.816520996507    -2.308349321753    -2.417646815828
H                     3.612555966726    -0.849248014503    -1.791293730027
H                     1.911006294166    -0.788578858028    -2.287949005813
H                     3.007321327382    -2.425805220261     0.083814573904
H                     1.319410890505    -2.378428550810    -0.409262712507
