35
-1 1 C12H16NO4S2
S                     2.428814201258     1.229793502186     0.050882394388
C                     2.424180953147    -0.600963015064    -0.106911439324
C                     1.251415645972    -1.150302422513    -0.917588653001
C                    -0.079666486044    -0.877707514150    -0.201779038170
O                    -0.207273532775    -1.121284445113     1.005922135695
N                    -1.064020559864    -0.437730419692    -1.007741547489
C                    -2.433234783631    -0.173607982437    -0.588246489809
C                    -3.262663206557    -1.451243348470    -0.497490936562
H                    -4.284178543618    -1.213482180887    -0.192459613645
H                    -3.301572426792    -1.943062357309    -1.474572861358
H                    -2.808779472588    -2.130799016722     0.232127515247
S                    -3.115098828712     0.996280378747    -1.871186592789
O                    -4.591185041641     0.889784682208    -1.737537088452
O                    -2.542932843687     2.324029710356    -1.529967851452
O                    -2.561714840465     0.409702490520    -3.140042131006
H                    -2.420529614519     0.364293407773     0.361441507739
H                    -0.900485873099    -0.275895857593    -2.000016737391
C                     1.376198463346    -2.684404582051    -1.118542767401
C                     2.563919757857    -3.077312506642    -1.965427989784
C                     2.537152508721    -2.881691762969    -3.356060412439
H                     1.640143933158    -2.474513881670    -3.818744527465
C                     3.641144633238    -3.202384434694    -4.149684811126
H                     3.597912913625    -3.043579221622    -5.224690820003
C                     4.799384983791    -3.728384819939    -3.564701921220
H                     5.660060183276    -3.977915661286    -4.180721366746
C                     4.838493021196    -3.931250301257    -2.181717347534
H                     5.732642928549    -4.339652402283    -1.716064352560
C                     3.729210532184    -3.607624103915    -1.392684995220
H                     3.767524142301    -3.764986700534    -0.316784862068
H                     0.453815988702    -3.036756026543    -1.593460909194
H                     1.428345046215    -3.158037452943    -0.133313339222
H                     1.244786717139    -0.676183380642    -1.905963002510
H                     2.349105804379    -0.966612592900     0.920606973975
H                     3.376820531840    -0.928744920418    -0.528149887200
H                     2.487903605006     1.497051092160    -1.271837912183
