11   
torsion grid (-165,)
C       -0.8706141339   -0.5658295369    0.7940287064
C        0.5459138598    0.9312859769   -0.7501336169
C        0.3991519946   -0.3945457372   -0.0060309845
F       -0.6597374235    1.2767104150   -1.3600718106
F        1.4989966918   -0.4843257069    0.8339466614
F        0.5161566759   -1.4325777689   -0.9087443818
H       -1.7350936341   -0.5296209644    0.1295620428
H       -0.9563800746    0.2310420263    1.5366282524
H       -0.8392039589   -1.5316446626    1.3032011301
H        0.8055855829    1.7181337602   -0.0377425092
H        1.3163181169    0.8409087623   -1.5197409443
11   
torsion grid (-150,)
C       -0.8883598402   -0.5811399492    0.7583630659
C        0.5536661650    0.9313069827   -0.7531451523
C        0.4130204814   -0.3880376734    0.0158762241
F       -0.6977469107    1.4063303045   -1.1484451487
F        1.4680396182   -0.4354095080    0.9150152639
F        0.6055339602   -1.4439640626   -0.8549561940
H       -1.7208313144   -0.6057338813    0.0541205538
H       -1.0437125597    0.2389103703    1.4630507703
H       -0.8397170859   -1.5253609486    1.3053392943
H        1.0025330572    1.6800386522   -0.0967539864
H        1.1686681257    0.7825962770   -1.6435621450
11   
torsion grid (-135,)
C       -0.9046603596   -0.6000717101    0.7252318263
C        0.5568539904    0.9321146450   -0.7583442725
C        0.4258729535   -0.3731406712    0.0479014164
F       -0.6900804344    1.5340954169   -0.9393467094
F        1.4325890690   -0.3722998603    1.0024314423
F        0.7050482177   -1.4412864913   -0.7866678229
H       -1.6997720460   -0.6590413827   -0.0193885650
H       -1.1228224540    0.2221616835    1.4096147063
H       -0.8519097992   -1.5370750432    1.2841140347
H        1.1881336047    1.6331605861   -0.2088740772
H        0.9818409547    0.7209193909   -1.7417694333
11   
torsion grid (-120,)
C       -0.9176036192   -0.6215472541    0.6932016447
C        0.5562045691    0.9320073707   -0.7620299840
C        0.4368206705   -0.3504775949    0.0844077254
F       -0.6348661754    1.6610432030   -0.7365526542
F        1.3921788213   -0.2990203924    1.0864427332
F        0.8064782179   -1.4218933430   -0.7152869069
H       -1.6711269221   -0.7095009367   -0.0915567120
H       -1.1993881645    0.1940807346    1.3611514359
H       -0.8616791881   -1.5562212559    1.2555793768
H        1.3495713263    1.5654601859   -0.3604743590
H        0.7645041611    0.6656058467   -1.7999797541
11   
torsion grid (-105,)
C       -0.1834482156   -0.4957255122    1.1985563266
C        0.2821588186    0.8950613828   -0.9318684534
C       -0.1220383089   -0.4507333501   -0.3085837148
F        0.9339819418    1.7003787377    0.0045177911
F        0.7357688091   -1.4335932457   -0.7703078743
F       -1.3636713204   -0.7794158897   -0.8365773229
H       -0.8766020782    0.2627067425    1.5686361309
H        0.8049342962   -0.3051070864    1.6189889871
H       -0.5296959709   -1.4860703506    1.5023420845
H        0.9561053815    0.7281598401   -1.7747346650
H       -0.6163996563    1.4238752954   -1.2560667440
11   
torsion grid (-90,)
C       -0.2229368395   -0.4849662229    1.1970253168
C        0.2787927664    0.8939614423   -0.9265268389
C       -0.0901089484   -0.4554926549   -0.3058739628
F        1.1390704274    1.5997946042   -0.0844024655
F        0.8304367828   -1.4041213996   -0.7119620494
F       -1.2895405103   -0.8319457641   -0.8950451173
H       -0.9648064825    0.2481364992    1.5221488341
H        0.7363413217   -0.2487683339    1.6595199568
H       -0.5428453280   -1.4838775397    1.5016388996
H        0.7754107301    0.7383380264   -1.8869362781
H       -0.6287202228    1.4884779067   -1.0546837496
11   
torsion grid (-75,)
C       -0.2633897034   -0.4790269987    1.1927829815
C        0.2797231807    0.8962365327   -0.9173106701
C       -0.0683392033   -0.4570063841   -0.3042859679
F        1.3238445227    1.4868622975   -0.2070082901
F        0.9078633295   -1.3681629113   -0.6556159424
F       -1.2276002087   -0.8727173815   -0.9418061868
H       -1.0706895208    0.2008089199    1.4756758132
H        0.6574790658   -0.1681961222    1.6888874804
H       -0.5216189065   -1.4939966098    1.5028293391
H        0.5938194385    0.7586794941   -1.9548867144
H       -0.5899982977    1.5560557271   -0.8643592967
11   
torsion grid (-60,)
C       -0.3047279838   -0.4756787849    1.1873672113
C        0.2848424275    0.9012616458   -0.9064427052
C       -0.0487266340   -0.4593554693   -0.3016530689
F        1.4770637109    1.3750829285   -0.3651607043
F        0.9770679462   -1.3317645313   -0.5939036444
F       -1.1677604993   -0.9146359218   -0.9800122832
H       -1.1720557753    0.1444941507    1.4260801061
H        0.5708713176   -0.0884047357    1.7126082787
H       -0.4962191263   -1.5018159772    1.5088269988
H        0.4125663971    0.7936513371   -1.9867429118
H       -0.5118280838    1.6167019218   -0.6860647314
11   
torsion grid (-45,)
C       -0.3461263124   -0.4759399570    1.1805724445
C        0.2929053319    0.9098712096   -0.8944852087
C       -0.0238382798   -0.4645173503   -0.2969233605
F        1.5888428709    1.2847620898   -0.5578170147
F        1.0469150288   -1.2977674805   -0.5240392809
F       -1.0962649961   -0.9665550563   -1.0133779810
H       -1.2514983241    0.1048727358    1.3727768200
H        0.4868370167   -0.0391853625    1.7370388721
H       -0.5005301593   -1.5051755112    1.5119142838
H        0.2281790058    0.8468200306   -1.9840779488
H       -0.4043274856    1.6623512157   -0.5166790801
11   
torsion grid (-30,)
C       -0.3878545978   -0.4780323727    1.1728660824
C        0.3046480916    0.9198038670   -0.8837392691
C        0.0101464382   -0.4703787788   -0.2868859303
F        1.6575194210    1.2175139599   -0.7846672693
F        1.1176241148   -1.2673839261   -0.4462162797
F       -1.0086740830   -1.0246119460   -1.0418657355
H       -1.3171711026    0.0797970890    1.3128259469
H        0.4028748124   -0.0129403606    1.7674585806
H       -0.5311429967   -1.5077321380    1.5077791755
H        0.0372434169    0.9114094634   -1.9436516201
H       -0.2641198179    1.6920917068   -0.3590011357
11   
torsion grid (-15,)
C       -0.4289468423   -0.4783324586    1.1626252302
C        0.3156937164    0.9273942657   -0.8740685714
C        0.0513149733   -0.4752248025   -0.2723981240
F        1.6751980297    1.1592198018   -1.0281960871
F        1.1909199026   -1.2319043604   -0.3645921075
F       -0.9059295287   -1.0901472911   -1.0653647432
H       -1.3711122858    0.0699126718    1.2452583938
H        0.3195612933   -0.0007846178    1.8005014194
H       -0.5814868144   -1.5076690366    1.4943760455
H       -0.1523276102    0.9813513658   -1.8600101331
H       -0.0917911372    1.7057210257   -0.2232287770
11   
torsion grid (0,)
C       -0.4689593713   -0.4772258864    1.1482993867
C        0.3241693219    0.9313993480   -0.8623203798
C        0.0938775847   -0.4765629615   -0.2559576908
F        1.6389224963    1.1023551737   -1.2687139277
F        1.2649563584   -1.1871255550   -0.2828424051
F       -0.7901927271   -1.1539613638   -1.0861669523
H       -1.4138275055    0.0726638518    1.1745900038
H        0.2400607233   -0.0017213360    1.8308035666
H       -0.6449402280   -1.5063405854    1.4687243213
H       -0.3265937807    1.0524305088   -1.7315078144
H        0.1036208248    1.7036253697   -0.1200055625
11   
torsion grid (15,)
C       -0.5072100608   -0.4750393059    1.1304213334
C        0.3323583205    0.9316293305   -0.8474598608
C        0.1332868676   -0.4735654606   -0.2399867843
F        1.5547037802    1.0395985806   -1.4919765432
F        1.3322577412   -1.1357769295   -0.2024138613
F       -0.6738285596   -1.2040847378   -1.1054968293
H       -1.4562827348    0.0680007825    1.1022277974
H        0.1573275820    0.0036620616    1.8537111165
H       -0.6962627996   -1.5053731418    1.4390004790
H       -0.4673479732    1.1236060700   -1.5670024376
H        0.3120915333    1.6868793143   -0.0561218642
11   
torsion grid (30,)
C       -0.5441224763   -0.4741244069    1.1104881098
C        0.3428515374    0.9310480354   -0.8306940859
C        0.1636523523   -0.4676008371   -0.2267550894
F        1.4323593376    0.9736821069   -1.6859130362
F        1.3869390137   -1.0819762934   -0.1212587806
F       -0.5656754747   -1.2369357636   -1.1235168592
H       -1.5028228550    0.0464765138    1.0326248496
H        0.0727242817    0.0195241065    1.8649190411
H       -0.7259633109   -1.5074318703    1.4133298377
H       -0.5599940955    1.1988689510   -1.3860294622
H        0.5211453867    1.6580060216   -0.0322919791
11   
torsion grid (45,)
C       -0.5804283749   -0.4754370768    1.0900735552
C        0.3607677083    0.9323774415   -0.8142075668
C        0.1856110505   -0.4607133096   -0.2158125277
F        1.2808801064    0.9123612616   -1.8506438637
F        1.4240331277   -1.0349626097   -0.0394595856
F       -0.4741541633   -1.2546066556   -1.1381017952
H       -1.5600867577   -0.0074469829    0.9617916614
H       -0.0227770549    0.0589926179    1.8625757700
H       -0.7223484540   -1.5117140064    1.4042799284
H       -0.6008643878    1.2826722156   -1.2000398435
H        0.7304608966    1.6180136681   -0.0455531869
11   
torsion grid (60,)
C       -0.6161869187   -0.4797267616    1.0660388075
C        0.3872625637    0.9358898785   -0.7950463894
C        0.2016478437   -0.4582424170   -0.2088030045
F        1.1027061702    0.8778922979   -1.9808618095
F        1.4442736976   -1.0066173698    0.0374643016
F       -0.3996838293   -1.2640264324   -1.1528578136
H       -1.6237493564   -0.1010017353    0.8782913307
H       -0.1372842234    0.1298037305    1.8363366521
H       -0.6848649794   -1.5101142337    1.4215829631
H       -0.5920508582    1.3772909941   -1.0027552931
H        0.9390235871    1.5583886127   -0.0844871991
11   
torsion grid (75,)
C       -0.6497793159   -0.4842455352    1.0402405407
C        0.4141472026    0.9381860193   -0.7800936178
C        0.2201896921   -0.4619568587   -0.2005373146
F        0.8992764994    0.8773984183   -2.0774637703
F        1.4612471426   -0.9854014133    0.1198764137
F       -0.3210782065   -1.2841862882   -1.1593959738
H       -1.6707868894   -0.1853400338    0.7923654362
H       -0.2488355449    0.1938652029    1.7985503738
H       -0.6620371276   -1.4984986589    1.4450533279
H       -0.5470127257    1.4606840529   -0.8049801326
H        1.1257629701    1.4890316584   -0.1587127374
11   
torsion grid (90,)
C       -0.6824741879   -0.4929790076    1.0150675233
C        0.4357707295    0.9423299034   -0.7725896234
C        0.2432733439   -0.4637847762   -0.1841147153
F        0.6747662212    0.8921057597   -2.1374117820
F        1.4813774770   -0.9476191186    0.2139109151
F       -0.2235443504   -1.3146330090   -1.1516398655
H       -1.6988303813   -0.2309568740    0.7122150400
H       -0.3394805257    0.2157420617    1.7743452027
H       -0.6811190983   -1.4976704871    1.4431641550
H       -0.4721002991    1.5335965741   -0.6203376784
H        1.2834547679    1.4234055374   -0.2777066258
11   
torsion grid (105,)
C       -0.7177037937   -0.5054465066    0.9906044200
C        0.4564112103    0.9482827688   -0.7698043205
C        0.2685892836   -0.4587972113   -0.1575797313
F        0.4356976894    0.9087944086   -2.1558903333
F        1.5012719035   -0.8930400721    0.3133503519
F       -0.1128731052   -1.3431950134   -1.1304386900
H       -1.7188948844   -0.2537302849    0.6324266301
H       -0.4251223743    0.2074143174    1.7668174814
H       -0.7278395038   -1.5109568572    1.4167216265
H       -0.3555517632    1.6071704461   -0.4489597100
H        1.4171090348    1.3530405685   -0.4423451790
11   
torsion grid (120,)
C       -0.7508660989   -0.5189177210    0.9665980898
C        0.4719030727    0.9521153750   -0.7701545203
C        0.2961241694   -0.4461606710   -0.1228865830
F        0.1857989798    0.9235243097   -2.1269977036
F        1.5220848115   -0.8163468096    0.4124560880
F        0.0094355414   -1.3683536358   -1.0959578526
H       -1.7318561649   -0.2732284388    0.5517166574
H       -0.5128070936    0.1898445056    1.7644811224
H       -0.7762015788   -1.5293394649    1.3803327336
H       -0.2015705154    1.6750917350   -0.3015334928
H        1.5090485737    1.2713073795   -0.6431519932
11   
torsion grid (135,)
C       -0.7827415740   -0.5304044885    0.9381810369
C        0.4879942993    0.9516344738   -0.7656949327
C        0.3216985640   -0.4291919118   -0.0881202626
F       -0.0531341388    0.9475109474   -2.0437312415
F        1.5365659277   -0.7353161235    0.5066775705
F        0.1301837745   -1.3813757701   -1.0600309997
H       -1.7403024615   -0.2931700151    0.4669338285
H       -0.6026397911    0.1729774334    1.7552806027
H       -0.8194423635   -1.5461354707    1.3377593282
H       -0.0117259453    1.7298394471   -0.1822247757
H        1.5546374056    1.1731680417   -0.8501276089
11   
torsion grid (150,)
C       -0.8108047864   -0.5383775785    0.9048348884
C        0.5045110860    0.9463921888   -0.7586619358
C        0.3455949861   -0.4130488057   -0.0579362418
F       -0.2657668978    0.9867066595   -1.9144678157
F        1.5422420796   -0.6571356725    0.5977136003
F        0.2439876728   -1.3886043720   -1.0239749717
H       -1.7436786033   -0.3140041099    0.3810509088
H       -0.6873002712    0.1626904173    1.7339853183
H       -0.8531174661   -1.5572703820    1.2957211644
H        0.1934706843    1.7609315484   -0.0987638585
H        1.5519552128    1.0712566703   -1.0445985111
11   
torsion grid (165,)
C       -0.8331194791   -0.5454639949    0.8690376792
C        0.5200811389    0.9394876625   -0.7529466552
C        0.3663061263   -0.4020813424   -0.0362389244
F       -0.4424570903    1.0522262236   -1.7513369910
F        1.5376144980   -0.5871666468    0.6818281308
F        0.3443778447   -1.3981052345   -0.9886227480
H       -1.7446150190   -0.3630707489    0.2949528027
H       -0.7730833896    0.1750124959    1.6883429980
H       -0.8602185683   -1.5573107153    1.2791772717
H        0.3990198107    1.7668862618   -0.0486006837
H        1.5071878246    0.9791226027   -1.2206903344
11   
torsion grid (180,)
C       -0.8530423286   -0.5539851415    0.8307779338
C        0.5351595672    0.9339253313   -0.7494611530
C        0.3838508754   -0.3975424349   -0.0210960455
F       -0.5734423487    1.1536235599   -1.5643813847
F        1.5222988120   -0.5317431012    0.7593908746
F        0.4319925558   -1.4146201730   -0.9514317050
H       -1.7428113311   -0.4359251922    0.2093400185
H       -0.8624940975    0.2010567004    1.6205198883
H       -0.8538285554   -1.5482258113    1.2829002600
H        0.6038971994    1.7493823547   -0.0247209997
H        1.4295133483    0.9035904715   -1.3769351417
