
  -OEChem-12102412493D

 30 32  0     0  0  0  0  0  0999 V2000
    2.0572   -1.0612   -0.1851 C   0  0  0  0  0  0  0  0  0  0  0  0
    2.9343   -0.2654    0.5572 C   0  0  0  0  0  0  0  0  0  0  0  0
    1.0792   -1.8134    0.4771 C   0  0  0  0  0  0  0  0  0  0  0  0
    2.9348   -1.5071    6.1877 C   0  0  0  0  0  0  0  0  0  0  0  0
    2.8345   -0.2226    1.9510 C   0  0  0  0  0  0  0  0  0  0  0  0
    0.9765   -1.7628    1.8667 C   0  0  0  0  0  0  0  0  0  0  0  0
    2.9348   -1.3800    4.7995 C   0  0  0  0  0  0  0  0  0  0  0  0
    1.7699   -1.2377    6.9057 C   0  0  0  0  0  0  0  0  0  0  0  0
   -1.8433    1.0014    2.7705 C   0  0  0  0  0  0  0  0  0  0  0  0
   -2.6819    0.4880    3.7406 C   0  0  0  0  0  0  0  0  0  0  0  0
    1.8500   -0.9625    2.6190 C   0  0  0  0  0  0  0  0  0  0  0  0
    1.7873   -0.9658    4.1071 C   0  0  0  0  0  0  0  0  0  0  0  0
    0.6124   -0.6317    4.8280 C   0  0  0  0  0  0  0  0  0  0  0  0
    0.6269   -0.8102    6.2290 C   0  0  0  0  0  0  0  0  0  0  0  0
   -0.5613   -0.0530    4.1553 C   0  0  0  0  0  0  0  0  0  0  0  0
   -0.5399    0.6644    3.0358 N   0  0  0  0  0  0  0  0  0  0  0  0
   -1.8538   -0.1846    4.6119 N   0  0  0  0  0  0  0  0  0  0  0  0
   -0.5356   -0.5367    6.9309 O   0  0  0  0  0  0  0  0  0  0  0  0
    2.1339   -1.0964   -1.2689 H   0  0  0  0  0  0  0  0  0  0  0  0
    3.6936    0.3266    0.0522 H   0  0  0  0  0  0  0  0  0  0  0  0
    0.3959   -2.4392   -0.0917 H   0  0  0  0  0  0  0  0  0  0  0  0
    3.8283   -1.8388    6.7094 H   0  0  0  0  0  0  0  0  0  0  0  0
    3.5067    0.4107    2.5244 H   0  0  0  0  0  0  0  0  0  0  0  0
    0.2116   -2.3428    2.3762 H   0  0  0  0  0  0  0  0  0  0  0  0
    3.8219   -1.6389    4.2297 H   0  0  0  0  0  0  0  0  0  0  0  0
    1.7472   -1.3549    7.9882 H   0  0  0  0  0  0  0  0  0  0  0  0
   -2.1083    1.5936    1.9041 H   0  0  0  0  0  0  0  0  0  0  0  0
   -3.7516    0.5408    3.8857 H   0  0  0  0  0  0  0  0  0  0  0  0
   -2.1086   -0.5973    5.4995 H   0  0  0  0  0  0  0  0  0  0  0  0
   -0.3540   -0.6271    7.8796 H   0  0  0  0  0  0  0  0  0  0  0  0
  1  2  1  0  0  0  0
  1  3  2  0  0  0  0
  1 19  1  0  0  0  0
  2  5  2  0  0  0  0
  2 20  1  0  0  0  0
  3  6  1  0  0  0  0
  3 21  1  0  0  0  0
  4  7  2  0  0  0  0
  4  8  1  0  0  0  0
  4 22  1  0  0  0  0
  5 11  1  0  0  0  0
  5 23  1  0  0  0  0
  6 11  2  0  0  0  0
  6 24  1  0  0  0  0
  7 12  1  0  0  0  0
  7 25  1  0  0  0  0
  8 14  2  0  0  0  0
  8 26  1  0  0  0  0
  9 10  2  0  0  0  0
  9 16  1  0  0  0  0
  9 27  1  0  0  0  0
 10 17  1  0  0  0  0
 10 28  1  0  0  0  0
 11 12  1  0  0  0  0
 12 13  2  0  0  0  0
 13 14  1  0  0  0  0
 13 15  1  0  0  0  0
 14 18  1  0  0  0  0
 15 16  2  0  0  0  0
 15 17  1  0  0  0  0
 17 29  1  0  0  0  0
 18 30  1  0  0  0  0
M  END
$$$$
