
  -OEChem-12122420533D

 24 25  0     0  0  0  0  0  0999 V2000
    1.8311   -1.0417   -0.1850 C   0  0  0  0  0  0  0  0  0  0  0  0
    0.8696   -1.7984    0.4930 C   0  0  0  0  0  0  0  0  0  0  0  0
    2.7831   -0.3243    0.5475 C   0  0  0  0  0  0  0  0  0  0  0  0
    0.4605   -0.8973    6.1780 C   0  0  0  0  0  0  0  0  0  0  0  0
    1.6019   -1.1778    6.9369 C   0  0  0  0  0  0  0  0  0  0  0  0
    0.8632   -1.8384    1.8897 C   0  0  0  0  0  0  0  0  0  0  0  0
    2.7752   -0.3640    1.9442 C   0  0  0  0  0  0  0  0  0  0  0  0
    0.5604   -0.8867    4.7862 C   0  0  0  0  0  0  0  0  0  0  0  0
    2.8145   -1.4463    6.3042 C   0  0  0  0  0  0  0  0  0  0  0  0
    1.8143   -1.1223    2.6385 C   0  0  0  0  0  0  0  0  0  0  0  0
    1.7716   -1.1459    4.1249 C   0  0  0  0  0  0  0  0  0  0  0  0
    2.9195   -1.4406    4.9013 C   0  0  0  0  0  0  0  0  0  0  0  0
    4.1670   -1.6906    4.3026 N   0  0  0  0  0  0  0  0  0  0  0  0
    1.8382   -1.0110   -1.2715 H   0  0  0  0  0  0  0  0  0  0  0  0
    0.1279   -2.3636   -0.0659 H   0  0  0  0  0  0  0  0  0  0  0  0
    3.5289    0.2750    0.0310 H   0  0  0  0  0  0  0  0  0  0  0  0
   -0.4880   -0.6826    6.6617 H   0  0  0  0  0  0  0  0  0  0  0  0
    1.5503   -1.1894    8.0228 H   0  0  0  0  0  0  0  0  0  0  0  0
    0.1236   -2.4411    2.4107 H   0  0  0  0  0  0  0  0  0  0  0  0
    3.5075    0.2092    2.5056 H   0  0  0  0  0  0  0  0  0  0  0  0
   -0.3145   -0.6514    4.1853 H   0  0  0  0  0  0  0  0  0  0  0  0
    3.6985   -1.6701    6.8986 H   0  0  0  0  0  0  0  0  0  0  0  0
    4.1084   -2.0540    3.3570 H   0  0  0  0  0  0  0  0  0  0  0  0
    4.7790   -2.2619    4.8748 H   0  0  0  0  0  0  0  0  0  0  0  0
  1  2  1  0  0  0  0
  1  3  2  0  0  0  0
  1 14  1  0  0  0  0
  2  6  2  0  0  0  0
  2 15  1  0  0  0  0
  3  7  1  0  0  0  0
  3 16  1  0  0  0  0
  4  5  1  0  0  0  0
  4  8  2  0  0  0  0
  4 17  1  0  0  0  0
  5  9  2  0  0  0  0
  5 18  1  0  0  0  0
  6 10  1  0  0  0  0
  6 19  1  0  0  0  0
  7 10  2  0  0  0  0
  7 20  1  0  0  0  0
  8 11  1  0  0  0  0
  8 21  1  0  0  0  0
  9 12  1  0  0  0  0
  9 22  1  0  0  0  0
 10 11  1  0  0  0  0
 11 12  2  0  0  0  0
 12 13  1  0  0  0  0
 13 23  1  0  0  0  0
 13 24  1  0  0  0  0
M  END
$$$$
