
  -OEChem-12122420533D

 28 30  0     0  0  0  0  0  0999 V2000
    1.7631   -1.2517   -0.1157 C   0  0  0  0  0  0  0  0  0  0  0  0
    0.8217   -0.4511    0.5387 C   0  0  0  0  0  0  0  0  0  0  0  0
    5.8013   -2.4242    4.2785 C   0  0  0  0  0  0  0  0  0  0  0  0
    6.1318   -3.7095    3.8391 C   0  0  0  0  0  0  0  0  0  0  0  0
    2.7451   -1.9099    0.6243 C   0  0  0  0  0  0  0  0  0  0  0  0
    0.8634   -0.3394    1.9281 C   0  0  0  0  0  0  0  0  0  0  0  0
    4.7081   -1.7796    3.7076 C   0  0  0  0  0  0  0  0  0  0  0  0
    5.3525   -4.2756    2.8279 C   0  0  0  0  0  0  0  0  0  0  0  0
    1.7589   -1.2857    6.2752 C   0  0  0  0  0  0  0  0  0  0  0  0
    1.5245    0.0678    6.1498 C   0  0  0  0  0  0  0  0  0  0  0  0
    2.8236   -1.7782    2.0195 C   0  0  0  0  0  0  0  0  0  0  0  0
    1.8500   -0.9980    2.6843 C   0  0  0  0  0  0  0  0  0  0  0  0
    3.9688   -2.4375    2.7101 C   0  0  0  0  0  0  0  0  0  0  0  0
    1.7891   -0.8893    4.1516 C   0  0  0  0  0  0  0  0  0  0  0  0
    4.3035   -3.6621    2.2661 N   0  0  0  0  0  0  0  0  0  0  0  0
    1.9200   -1.8663    5.0375 N   0  0  0  0  0  0  0  0  0  0  0  0
    1.5383    0.3071    4.7881 N   0  0  0  0  0  0  0  0  0  0  0  0
    1.7322   -1.3623   -1.1965 H   0  0  0  0  0  0  0  0  0  0  0  0
    0.0464    0.0613   -0.0247 H   0  0  0  0  0  0  0  0  0  0  0  0
    6.3865   -1.9326    5.0517 H   0  0  0  0  0  0  0  0  0  0  0  0
    6.9715   -4.2561    4.2588 H   0  0  0  0  0  0  0  0  0  0  0  0
    3.4827   -2.5325    0.1282 H   0  0  0  0  0  0  0  0  0  0  0  0
    0.0894    0.2246    2.4432 H   0  0  0  0  0  0  0  0  0  0  0  0
    4.4317   -0.7799    4.0244 H   0  0  0  0  0  0  0  0  0  0  0  0
    5.5817   -5.2700    2.4470 H   0  0  0  0  0  0  0  0  0  0  0  0
    1.8108   -1.8708    7.1844 H   0  0  0  0  0  0  0  0  0  0  0  0
    1.3527    0.8517    6.8735 H   0  0  0  0  0  0  0  0  0  0  0  0
    1.4533    1.2087    4.3375 H   0  0  0  0  0  0  0  0  0  0  0  0
  1  2  1  0  0  0  0
  1  5  2  0  0  0  0
  1 18  1  0  0  0  0
  2  6  2  0  0  0  0
  2 19  1  0  0  0  0
  3  4  1  0  0  0  0
  3  7  2  0  0  0  0
  3 20  1  0  0  0  0
  4  8  2  0  0  0  0
  4 21  1  0  0  0  0
  5 11  1  0  0  0  0
  5 22  1  0  0  0  0
  6 12  1  0  0  0  0
  6 23  1  0  0  0  0
  7 13  1  0  0  0  0
  7 24  1  0  0  0  0
  8 15  1  0  0  0  0
  8 25  1  0  0  0  0
  9 10  2  0  0  0  0
  9 16  1  0  0  0  0
  9 26  1  0  0  0  0
 10 17  1  0  0  0  0
 10 27  1  0  0  0  0
 11 12  2  0  0  0  0
 11 13  1  0  0  0  0
 12 14  1  0  0  0  0
 13 15  2  0  0  0  0
 14 16  2  0  0  0  0
 14 17  1  0  0  0  0
 17 28  1  0  0  0  0
M  END
$$$$
