23
0 1 C11H11N
C                     4.459971165376    -0.645346319539    -2.287993207985
C                     4.684400961994    -0.052383347336    -1.042584443035
C                     3.251505901953    -0.410570653360    -2.956791290932
C                     3.705184913133     0.769660243570    -0.471669115430
C                     2.278875103638     0.409965835558    -2.382636747909
C                     2.494722090408     1.009925752885    -1.132581553045
C                     0.131418445591     1.146583767251    -0.269096904122
C                     1.134779612300     3.116073308545    -1.384951387792
C                    -0.998988908799     1.387063154120    -0.954578536910
C                    -0.029757724806     3.289508070115    -2.032492956655
C                     1.422014631538     1.907406719652    -0.512860412387
N                    -1.086420721152     2.375265616287    -1.942632443159
H                     5.217743866250    -1.284284128427    -2.734679269330
H                     5.619215714355    -0.228635215537    -0.515755292193
H                     3.070476695978    -0.868938751430    -3.926262705503
H                     3.884714203346     1.229297536138     0.498713526423
H                     1.341797182058     0.590914357883    -2.903196413539
H                     0.142915603675     0.337894196094     0.455585737214
H                     1.928509809387     3.842824323678    -1.530218136398
H                    -1.904086884087     0.808080805693    -0.796341728956
H                    -0.206551703309     4.140065898758    -2.684226445126
H                     1.824136536804     2.249065810513     0.451786482972
H                    -2.010488990345     2.726478070335    -2.153672738696
