
  -OEChem-12122420533D

 27 29  0     0  0  0  0  0  0999 V2000
   -0.7845    1.4269    1.6132 C   0  0  0  0  0  0  0  0  0  0  0  0
   -1.7542    1.7038    2.5728 C   0  0  0  0  0  0  0  0  0  0  0  0
   -0.8386    0.2494    0.8388 C   0  0  0  0  0  0  0  0  0  0  0  0
   -3.9455    0.7327    3.6329 C   0  0  0  0  0  0  0  0  0  0  0  0
   -4.6173   -0.4340    3.3550 C   0  0  0  0  0  0  0  0  0  0  0  0
   -2.8005    0.7813    2.7606 C   0  0  0  0  0  0  0  0  0  0  0  0
   -1.8582   -0.6906    0.9934 C   0  0  0  0  0  0  0  0  0  0  0  0
   -2.8304   -0.4011    1.9637 C   0  0  0  0  0  0  0  0  0  0  0  0
   -0.6675   -2.8200    0.3716 C   0  0  0  0  0  0  0  0  0  0  0  0
   -2.0217   -1.6354   -1.3345 C   0  0  0  0  0  0  0  0  0  0  0  0
    0.2586   -3.0374   -0.5777 C   0  0  0  0  0  0  0  0  0  0  0  0
   -1.0481   -1.8943   -2.2239 C   0  0  0  0  0  0  0  0  0  0  0  0
   -1.8974   -1.9602    0.1431 C   0  0  0  0  0  0  0  0  0  0  0  0
   -3.9522   -1.1216    2.3514 N   0  0  0  0  0  0  0  0  0  0  0  0
    0.1613   -2.4979   -1.8645 N   0  0  0  0  0  0  0  0  0  0  0  0
    0.0313    2.1277    1.4540 H   0  0  0  0  0  0  0  0  0  0  0  0
   -1.7063    2.6135    3.1663 H   0  0  0  0  0  0  0  0  0  0  0  0
   -0.0669    0.0604    0.0970 H   0  0  0  0  0  0  0  0  0  0  0  0
   -4.2341    1.4687    4.3722 H   0  0  0  0  0  0  0  0  0  0  0  0
   -5.5220   -0.8377    3.7907 H   0  0  0  0  0  0  0  0  0  0  0  0
   -0.5051   -3.2262    1.3654 H   0  0  0  0  0  0  0  0  0  0  0  0
   -2.9152   -1.1180   -1.6707 H   0  0  0  0  0  0  0  0  0  0  0  0
    1.1539   -3.6212   -0.3856 H   0  0  0  0  0  0  0  0  0  0  0  0
   -1.1361   -1.6180   -3.2705 H   0  0  0  0  0  0  0  0  0  0  0  0
   -2.7854   -2.5343    0.4494 H   0  0  0  0  0  0  0  0  0  0  0  0
   -4.2428   -2.0073    1.9662 H   0  0  0  0  0  0  0  0  0  0  0  0
    0.6807   -2.9602   -2.5978 H   0  0  0  0  0  0  0  0  0  0  0  0
  1  2  1  0  0  0  0
  1  3  2  0  0  0  0
  1 16  1  0  0  0  0
  2  6  2  0  0  0  0
  2 17  1  0  0  0  0
  3  7  1  0  0  0  0
  3 18  1  0  0  0  0
  4  5  2  0  0  0  0
  4  6  1  0  0  0  0
  4 19  1  0  0  0  0
  5 14  1  0  0  0  0
  5 20  1  0  0  0  0
  6  8  1  0  0  0  0
  7  8  2  0  0  0  0
  7 13  1  0  0  0  0
  8 14  1  0  0  0  0
  9 11  2  0  0  0  0
  9 13  1  0  0  0  0
  9 21  1  0  0  0  0
 10 12  2  0  0  0  0
 10 13  1  0  0  0  0
 10 22  1  0  0  0  0
 11 15  1  0  0  0  0
 11 23  1  0  0  0  0
 12 15  1  0  0  0  0
 12 24  1  0  0  0  0
 13 25  1  0  0  0  0
 14 26  1  0  0  0  0
 15 27  1  0  0  0  0
M  END
$$$$
