
  -OEChem-12122420533D

 22 23  0     0  0  0  0  0  0999 V2000
  -12.6369  -10.3320   18.6902 C   0  0  0  0  0  0  0  0  0  0  0  0
  -11.7055  -11.1541   19.3327 C   0  0  0  0  0  0  0  0  0  0  0  0
  -13.0150   -9.1251   19.2880 C   0  0  0  0  0  0  0  0  0  0  0  0
  -11.3428   -8.0894   24.6957 C   0  0  0  0  0  0  0  0  0  0  0  0
  -11.1580  -10.7823   20.5622 C   0  0  0  0  0  0  0  0  0  0  0  0
  -12.4731   -8.7540   20.5193 C   0  0  0  0  0  0  0  0  0  0  0  0
  -11.8141   -8.5150   23.4220 C   0  0  0  0  0  0  0  0  0  0  0  0
  -10.0492   -8.3702   25.0325 C   0  0  0  0  0  0  0  0  0  0  0  0
  -11.5456   -9.5801   21.1835 C   0  0  0  0  0  0  0  0  0  0  0  0
  -11.0248   -9.1879   22.5124 C   0  0  0  0  0  0  0  0  0  0  0  0
   -9.6418   -9.5164   22.8803 C   0  0  0  0  0  0  0  0  0  0  0  0
   -9.2576   -9.0470   24.1501 N   0  0  0  0  0  0  0  0  0  0  0  0
   -8.8156  -10.1368   22.2041 O   0  0  0  0  0  0  0  0  0  0  0  0
  -13.0545  -10.6220   17.7294 H   0  0  0  0  0  0  0  0  0  0  0  0
  -11.3985  -12.0900   18.8724 H   0  0  0  0  0  0  0  0  0  0  0  0
  -13.7218   -8.4663   18.7896 H   0  0  0  0  0  0  0  0  0  0  0  0
  -11.9884   -7.5647   25.3900 H   0  0  0  0  0  0  0  0  0  0  0  0
  -10.4240  -11.4174   21.0425 H   0  0  0  0  0  0  0  0  0  0  0  0
  -12.7504   -7.7977   20.9548 H   0  0  0  0  0  0  0  0  0  0  0  0
  -12.8504   -8.3137   23.1638 H   0  0  0  0  0  0  0  0  0  0  0  0
   -9.5961   -8.0912   25.9781 H   0  0  0  0  0  0  0  0  0  0  0  0
   -8.2960   -9.2686   24.3887 H   0  0  0  0  0  0  0  0  0  0  0  0
  1  2  1  0  0  0  0
  1  3  2  0  0  0  0
  1 14  1  0  0  0  0
  2  5  2  0  0  0  0
  2 15  1  0  0  0  0
  3  6  1  0  0  0  0
  3 16  1  0  0  0  0
  4  7  1  0  0  0  0
  4  8  2  0  0  0  0
  4 17  1  0  0  0  0
  5  9  1  0  0  0  0
  5 18  1  0  0  0  0
  6  9  2  0  0  0  0
  6 19  1  0  0  0  0
  7 10  2  0  0  0  0
  7 20  1  0  0  0  0
  8 12  1  0  0  0  0
  8 21  1  0  0  0  0
  9 10  1  0  0  0  0
 10 11  1  0  0  0  0
 11 12  1  0  0  0  0
 11 13  2  0  0  0  0
 12 22  1  0  0  0  0
M  END
$$$$
