25
0 1 C11H14
C                    -5.650970866169     4.146408849643    -1.300454233496
C                    -5.951089630660     3.150377374688    -0.366485894792
C                    -4.359535706797     4.216172847835    -1.831819025713
C                    -4.969710866290     2.236563856033     0.029765048619
C                    -3.382456946480     3.299768900898    -1.431835970064
C                    -3.667419594107     2.293811834215    -0.493485345541
C                    -0.363157661184     0.733086419951     0.698533238344
C                    -1.396580792553     0.026819500094     1.625097922195
C                    -1.158642472316     1.800756381656    -0.083511143691
C                    -2.754372350511     0.704738809534     1.337464120304
C                    -2.611774157911     1.282413582240    -0.085687522556
H                    -6.411827236110     4.859107754451    -1.608446234114
H                    -6.950696142182     3.084454705619     0.056549538349
H                    -4.110758091000     4.986315854482    -2.558113006364
H                    -5.225101884861     1.471927425106     0.757578963805
H                    -2.385535707672     3.373354653948    -1.856777171427
H                     0.461803214891     1.179782371617     1.261265909325
H                     0.082800945540     0.010497484124     0.007320701034
H                    -1.447760965541    -1.041728742319     1.392205973425
H                    -1.126604882749     0.104972052472     2.682341923368
H                    -1.127387117794     2.765301870785     0.437730075727
H                    -0.756212935170     1.960720228230    -1.088082443429
H                    -3.592178712328     0.008411171220     1.437709212673
H                    -2.930109345162     1.529386169279     2.038921861794
H                    -2.662720736202     0.440053613482    -0.792868723047
