24
0 1 C12FH11
C                    -4.572541355910     0.779010148703    -0.994813309016
C                    -4.759175622775     1.536389332235     0.164860355055
C                    -3.316060854311     0.231807241324    -1.272607552810
C                    -3.687660733542     1.741661051123     1.039460053781
C                    -2.221481929813     0.418793643872    -0.416739250937
C                    -2.451596523744     1.183525331989     0.733386463430
C                     0.665553041288    -1.074604945470     1.058529150363
C                     1.292971667737     1.003919660337    -0.197968004443
C                    -0.438697030661    -1.192629376098     0.315158282450
C                     0.189541090201     0.888612305973    -0.942980496482
C                     1.624798439645     0.078889135305     0.941586855380
C                    -0.856632756563    -0.184384385285    -0.733011816548
F                    -1.430532246754     1.400751635033     1.602573208468
H                    -5.399522191359     0.614444868152    -1.679972831635
H                    -5.730555038697     1.966942378541     0.392049593864
H                    -3.173781311060    -0.357291043874    -2.176056283819
H                    -3.795197565077     2.324304559707     1.949579725002
H                     0.895530393109    -1.837686780754     1.800680582312
H                     1.996417940767     1.809330782878    -0.403998103066
H                    -1.104297353932    -2.042534819200     0.456628830165
H                    -0.005059944862     1.599019910500    -1.744746582895
H                     2.651911698996    -0.298327473175     0.830463329505
H                     1.630551828908     0.647296909071     1.884734714739
H                    -0.985985802333    -0.720417160804    -1.684326219086
