
  -OEChem-12102412493D

 19 20  0     0  0  0  0  0  0999 V2000
    1.9104   -1.0142   -0.1313 C   0  0  0  0  0  0  0  0  0  0  0  0
    3.0429   -1.4595    0.5590 C   0  0  0  0  0  0  0  0  0  0  0  0
    0.7728   -0.6283    0.5859 C   0  0  0  0  0  0  0  0  0  0  0  0
    3.0358   -1.5163    1.9559 C   0  0  0  0  0  0  0  0  0  0  0  0
    0.7709   -0.6870    1.9828 C   0  0  0  0  0  0  0  0  0  0  0  0
    1.9010   -1.1312    2.6856 C   0  0  0  0  0  0  0  0  0  0  0  0
    0.8386   -1.9046    4.9520 C   0  0  0  0  0  0  0  0  0  0  0  0
    2.2624   -2.4240    4.9354 C   0  0  0  0  0  0  0  0  0  0  0  0
    1.9089   -1.1580    4.1850 C   0  0  0  0  0  0  0  0  0  0  0  0
    1.9129   -0.9721   -1.2176 H   0  0  0  0  0  0  0  0  0  0  0  0
    3.9300   -1.7643    0.0088 H   0  0  0  0  0  0  0  0  0  0  0  0
   -0.1126   -0.2841    0.0567 H   0  0  0  0  0  0  0  0  0  0  0  0
    3.9156   -1.8668    2.4907 H   0  0  0  0  0  0  0  0  0  0  0  0
   -0.1159   -0.3907    2.5385 H   0  0  0  0  0  0  0  0  0  0  0  0
    0.1009   -2.4536    4.3738 H   0  0  0  0  0  0  0  0  0  0  0  0
    0.4603   -1.4644    5.8701 H   0  0  0  0  0  0  0  0  0  0  0  0
    2.8541   -2.3380    5.8422 H   0  0  0  0  0  0  0  0  0  0  0  0
    2.4611   -3.3148    4.3464 H   0  0  0  0  0  0  0  0  0  0  0  0
    2.2515   -0.2332    4.6471 H   0  0  0  0  0  0  0  0  0  0  0  0
  1  2  1  0  0  0  0
  1  3  2  0  0  0  0
  1 10  1  0  0  0  0
  2  4  2  0  0  0  0
  2 11  1  0  0  0  0
  3  5  1  0  0  0  0
  3 12  1  0  0  0  0
  4  6  1  0  0  0  0
  4 13  1  0  0  0  0
  5  6  2  0  0  0  0
  5 14  1  0  0  0  0
  6  9  1  0  0  0  0
  7  8  1  0  0  0  0
  7  9  1  0  0  0  0
  7 15  1  0  0  0  0
  7 16  1  0  0  0  0
  8  9  1  0  0  0  0
  8 17  1  0  0  0  0
  8 18  1  0  0  0  0
  9 19  1  0  0  0  0
M  END
$$$$
