
  -OEChem-12102412493D

 37 39  0     0  0  0  0  0  0999 V2000
    5.6513   -2.8185   -0.1116 C   0  0  0  0  0  0  0  0  0  0  0  0
    4.4011   -3.3753   -0.4088 C   0  0  0  0  0  0  0  0  0  0  0  0
    6.3189   -2.0713   -1.0861 C   0  0  0  0  0  0  0  0  0  0  0  0
    4.1773   -2.4865   -6.4270 C   0  0  0  0  0  0  0  0  0  0  0  0
    2.8516   -2.0961   -6.6189 C   0  0  0  0  0  0  0  0  0  0  0  0
    3.8216   -3.1816   -1.6635 C   0  0  0  0  0  0  0  0  0  0  0  0
    5.7391   -1.8821   -2.3446 C   0  0  0  0  0  0  0  0  0  0  0  0
    4.6823   -2.5588   -5.1258 C   0  0  0  0  0  0  0  0  0  0  0  0
    2.0553   -1.7608   -5.5203 C   0  0  0  0  0  0  0  0  0  0  0  0
    4.4830   -2.4308   -2.6515 C   0  0  0  0  0  0  0  0  0  0  0  0
    3.8941   -2.2534   -4.0075 C   0  0  0  0  0  0  0  0  0  0  0  0
    2.5546   -1.8233   -4.2081 C   0  0  0  0  0  0  0  0  0  0  0  0
    0.0261   -0.3193   -1.0536 C   0  0  0  0  0  0  0  0  0  0  0  0
    1.5546   -0.2526   -0.9545 C   0  0  0  0  0  0  0  0  0  0  0  0
   -0.3987   -1.5200   -1.9072 C   0  0  0  0  0  0  0  0  0  0  0  0
    2.1923   -0.2883   -2.3432 C   0  0  0  0  0  0  0  0  0  0  0  0
    0.3029   -1.5077   -3.2692 C   0  0  0  0  0  0  0  0  0  0  0  0
    1.7534   -1.4799   -3.0900 N   0  0  0  0  0  0  0  0  0  0  0  0
    6.0984   -2.9662    0.8681 H   0  0  0  0  0  0  0  0  0  0  0  0
    3.8775   -3.9654    0.3397 H   0  0  0  0  0  0  0  0  0  0  0  0
    7.2883   -1.6306   -0.8669 H   0  0  0  0  0  0  0  0  0  0  0  0
    4.8068   -2.7481   -7.2731 H   0  0  0  0  0  0  0  0  0  0  0  0
    2.4351   -2.0382   -7.6216 H   0  0  0  0  0  0  0  0  0  0  0  0
    2.8491   -3.6069   -1.8865 H   0  0  0  0  0  0  0  0  0  0  0  0
    6.2556   -1.2859   -3.0928 H   0  0  0  0  0  0  0  0  0  0  0  0
    5.7001   -2.9039   -4.9631 H   0  0  0  0  0  0  0  0  0  0  0  0
    1.0381   -1.4253   -5.6913 H   0  0  0  0  0  0  0  0  0  0  0  0
   -0.3481    0.6042   -1.5172 H   0  0  0  0  0  0  0  0  0  0  0  0
   -0.4249   -0.3781   -0.0565 H   0  0  0  0  0  0  0  0  0  0  0  0
    1.8700    0.6601   -0.4357 H   0  0  0  0  0  0  0  0  0  0  0  0
    1.9318   -1.1052   -0.3780 H   0  0  0  0  0  0  0  0  0  0  0  0
   -0.1398   -2.4512   -1.3886 H   0  0  0  0  0  0  0  0  0  0  0  0
   -1.4841   -1.5216   -2.0619 H   0  0  0  0  0  0  0  0  0  0  0  0
    1.9205    0.6250   -2.9054 H   0  0  0  0  0  0  0  0  0  0  0  0
    3.2783   -0.3023   -2.2555 H   0  0  0  0  0  0  0  0  0  0  0  0
    0.0386   -2.4075   -3.8323 H   0  0  0  0  0  0  0  0  0  0  0  0
   -0.0545   -0.6363   -3.8510 H   0  0  0  0  0  0  0  0  0  0  0  0
  1  2  1  0  0  0  0
  1  3  2  0  0  0  0
  1 19  1  0  0  0  0
  2  6  2  0  0  0  0
  2 20  1  0  0  0  0
  3  7  1  0  0  0  0
  3 21  1  0  0  0  0
  4  5  1  0  0  0  0
  4  8  2  0  0  0  0
  4 22  1  0  0  0  0
  5  9  2  0  0  0  0
  5 23  1  0  0  0  0
  6 10  1  0  0  0  0
  6 24  1  0  0  0  0
  7 10  2  0  0  0  0
  7 25  1  0  0  0  0
  8 11  1  0  0  0  0
  8 26  1  0  0  0  0
  9 12  1  0  0  0  0
  9 27  1  0  0  0  0
 10 11  1  0  0  0  0
 11 12  2  0  0  0  0
 12 18  1  0  0  0  0
 13 14  1  0  0  0  0
 13 15  1  0  0  0  0
 13 28  1  0  0  0  0
 13 29  1  0  0  0  0
 14 16  1  0  0  0  0
 14 30  1  0  0  0  0
 14 31  1  0  0  0  0
 15 17  1  0  0  0  0
 15 32  1  0  0  0  0
 15 33  1  0  0  0  0
 16 18  1  0  0  0  0
 16 34  1  0  0  0  0
 16 35  1  0  0  0  0
 17 18  1  0  0  0  0
 17 36  1  0  0  0  0
 17 37  1  0  0  0  0
M  END
$$$$
