30
0 1 C14H11N3O2
C                     0.886071144089     1.145343190657     1.524356964320
C                    -0.078902237732     0.195767087630     1.162993351466
C                     2.548777780607     2.132253783084     6.662464507628
C                     0.679598944365     1.937071235184     2.649938137881
C                    -1.254522556503     0.080414504490     1.898839324736
C                     1.569090007305     1.923357999361     5.644889815669
C                     2.409873440733     3.125177336779     7.591442668193
C                    -0.487237344923     1.815406726818     3.428455384470
C                    -1.481341545893     0.898567817381     3.018425200963
C                     0.469330713087     2.746695190417     5.615762076332
C                     1.246800374011     4.004602163272     7.594174635503
C                    -0.664136867820     2.625493833821     4.658259195029
C                    -3.526273188601     1.773621020976     4.152936388123
C                    -2.900074283871     3.166570123250     4.111272731713
N                    -1.745468459987     3.242897924436     4.988658527286
N                     0.341039720686     3.730169374831     6.558137104125
N                    -2.686620596289     0.747460090101     3.731580531698
O                     1.027309795767     4.913045575718     8.397176514748
O                    -4.666224243401     1.547789306925     4.522915609228
H                     1.790609265763     1.261936657314     0.934863256744
H                     0.075861913570    -0.439678310421     0.295399329289
H                     3.419133552188     1.480815183905     6.694519443623
H                     1.428688418723     2.666564959925     2.940774361498
H                    -2.018848333949    -0.633237062175     1.600627175151
H                     1.671709041560     1.117786430289     4.930398000262
H                     3.145128360100     3.296227424750     8.370557731570
H                    -2.635831702223     3.393687436293     3.066994461219
H                    -3.659784064384     3.870387307170     4.448521627949
H                    -0.522976290948     4.270880553151     6.541135132481
H                    -3.174120090310    -0.137426056877     3.627393317822
