30
0 1 C14H11N3O2
C                    20.084329506110    10.879374853866   -19.914084582433
C                    18.738908984190    10.579198488435   -20.165449149817
C                    21.878929789354    15.467017514466   -17.492528798051
C                    20.442635152033    11.453323017777   -18.698094175652
C                    17.777768829788    10.811215104014   -19.186056154680
C                    21.033397413803    14.322914318308   -17.615059130293
C                    22.426269245620    15.822597474412   -16.291619978816
C                    19.482636919718    11.727044316875   -17.705201610574
C                    18.138564148652    11.362465047573   -17.944997305779
C                    20.774332947579    13.576631483456   -16.490705811907
C                    22.157819588728    15.058509234033   -15.079113452536
C                    19.872941572897    12.392894517626   -16.438613395618
C                    17.192772810996    11.231744687267   -15.637640186003
C                    18.593836089072    10.895497391196   -15.129661703266
N                    19.482266643840    12.036351312278   -15.263918247948
N                    21.323014455461    13.951423973467   -15.294837691360
N                    17.131712280348    11.577840616824   -16.983763328257
O                    22.591318945573    15.309679482253   -13.953400000549
O                    16.190595043283    11.209756247016   -14.942989758984
H                    20.843223803374    10.670505666590   -20.662230713744
H                    18.442735484517    10.144803885460   -21.116270052271
H                    22.083814139940    16.065194131052   -18.377463094863
H                    21.481791558639    11.697997128893   -18.502648504967
H                    16.738173931070    10.548609346855   -19.366825143053
H                    20.581244258650    14.063851518993   -18.562925445877
H                    23.070100573139    16.688872194302   -16.182538875887
H                    18.498881826874    10.630871801665   -14.077404742211
H                    18.962359840010    10.022250475799   -15.689603827019
H                    21.048066364836    13.410584866556   -14.475664103640
H                    16.177881571380    11.648193552210   -17.325497837454
