28
0 1 C14H11N3
C                     2.001973142581    -0.818718664656    -0.102407162283
C                     0.805129081671    -0.480850938006     0.537034211640
C                     5.029023302357    -3.821883977103     4.234533413175
C                     6.303688428456    -3.395922802541     3.849776505703
C                     3.062310517932    -1.334487514369     0.642407274602
C                     0.695314390958    -0.643154620993     1.917755616107
C                     3.916245507908    -3.213028897787     3.662174532473
C                     6.393729100333    -2.386818713694     2.888600309041
C                     1.855271588178    -1.108035694587     6.280429020964
C                     0.589560701411    -1.623994174953     6.095312587801
C                     2.955136532627    -1.538817292530     2.026975347590
C                     1.758048235267    -1.163317477800     2.678553771263
C                     4.104846890509    -2.189550440277     2.718109042788
C                     1.593896601959    -1.241087678476     4.139919459548
N                     5.330568876778    -1.799213173907     2.325673054308
N                     2.465526833351    -0.874880130897     5.068671978951
N                     0.431512926140    -1.696704578936     4.723690681811
H                     2.108233953232    -0.681180168205    -1.175280793381
H                    -0.026551254874    -0.070814261494    -0.029835677901
H                     4.904892097925    -4.615664393107     4.966838926316
H                     7.202523856044    -3.835217522986     4.273092672645
H                     3.995667223032    -1.602466383464     0.157866405074
H                    -0.208429552142    -0.314120587107     2.425090539980
H                     2.915157400740    -3.526707442003     3.937027016652
H                     7.366976633520    -2.032886881462     2.550729237991
H                     2.352899809184    -0.884849559666     7.215424614345
H                    -0.184275702870    -1.931199347268     6.784172355607
H                    -0.363737877537    -2.082667518314     4.231942095875
