23
0 1 C10H11NO
C                    -0.325252687000    -0.589188875044     2.013056118954
C                    -0.222576104724    -0.736650465507     0.625397984437
C                    -0.347866461253    -1.730324598866     2.807940737293
C                    -0.159671576709    -2.012192184240     0.079892661675
C                    -0.266952519312    -3.035831882046     2.287574480642
C                    -0.183607828312    -3.171506494650     0.886109631148
C                    -0.569723779280    -5.662557005401     0.378671253130
C                    -0.280880008404    -4.150849752421     3.323644545835
C                    -1.073920571167    -6.004677088989     1.760722527554
C                    -0.079251087225    -5.589760964669     2.855859167789
N                    -0.073258520446    -4.388938448946     0.167437040605
O                    -0.534780435316    -6.480914506610    -0.537893150921
H                    -0.382290423077     0.396860433846     2.465239463666
H                    -0.200112590341     0.132041334794    -0.026895061308
H                    -0.417814623698    -1.620631878208     3.888617906587
H                    -0.097389832061    -2.129978082948    -1.000052533825
H                     0.480411292287    -3.915166753705     4.076737081747
H                    -1.243027271706    -4.098895514885     3.850877189009
H                    -2.042305659009    -5.514707215827     1.925872294917
H                    -1.247147879394    -7.081850147337     1.756584494060
H                     0.945561791165    -5.743515027804     2.500294670401
H                    -0.206687670101    -6.245069002865     3.723775448305
H                     0.207825993782    -4.277336583915    -0.801720201457
