
  -OEChem-12102412493D

 27 29  0     0  0  0  0  0  0999 V2000
   -0.7182    1.3913    1.5347 C   0  0  0  0  0  0  0  0  0  0  0  0
   -1.7018    1.6383    2.4855 C   0  0  0  0  0  0  0  0  0  0  0  0
   -0.7489    0.2201    0.7461 C   0  0  0  0  0  0  0  0  0  0  0  0
   -3.8856    0.6257    3.5126 C   0  0  0  0  0  0  0  0  0  0  0  0
   -4.5371   -0.5485    3.2137 C   0  0  0  0  0  0  0  0  0  0  0  0
   -2.7355    0.6964    2.6506 C   0  0  0  0  0  0  0  0  0  0  0  0
   -1.7533   -0.7395    0.8757 C   0  0  0  0  0  0  0  0  0  0  0  0
   -2.7455   -0.4799    1.8420 C   0  0  0  0  0  0  0  0  0  0  0  0
   -2.9980   -2.0782   -0.8641 C   0  0  0  0  0  0  0  0  0  0  0  0
   -1.6486   -3.2606    0.8392 C   0  0  0  0  0  0  0  0  0  0  0  0
   -4.0003   -2.9325   -0.6106 C   0  0  0  0  0  0  0  0  0  0  0  0
   -2.6906   -4.0801    1.0428 C   0  0  0  0  0  0  0  0  0  0  0  0
   -1.7587   -1.9960    0.0078 C   0  0  0  0  0  0  0  0  0  0  0  0
   -3.8568   -1.2164    2.2112 N   0  0  0  0  0  0  0  0  0  0  0  0
   -3.9615   -3.8272    0.4814 N   0  0  0  0  0  0  0  0  0  0  0  0
    0.0887    2.1055    1.3913 H   0  0  0  0  0  0  0  0  0  0  0  0
   -1.6755    2.5410    3.0912 H   0  0  0  0  0  0  0  0  0  0  0  0
    0.0364    0.0567    0.0106 H   0  0  0  0  0  0  0  0  0  0  0  0
   -4.1890    1.3509    4.2565 H   0  0  0  0  0  0  0  0  0  0  0  0
   -5.4400   -0.9696    3.6367 H   0  0  0  0  0  0  0  0  0  0  0  0
   -3.0968   -1.3765   -1.6866 H   0  0  0  0  0  0  0  0  0  0  0  0
   -0.7051   -3.4724    1.3326 H   0  0  0  0  0  0  0  0  0  0  0  0
   -4.9139   -2.9566   -1.1964 H   0  0  0  0  0  0  0  0  0  0  0  0
   -2.6333   -4.9552    1.6827 H   0  0  0  0  0  0  0  0  0  0  0  0
   -0.8758   -1.9209   -0.6395 H   0  0  0  0  0  0  0  0  0  0  0  0
   -4.1390   -2.1067    1.8167 H   0  0  0  0  0  0  0  0  0  0  0  0
   -4.5586   -4.6402    0.3900 H   0  0  0  0  0  0  0  0  0  0  0  0
  1  2  1  0  0  0  0
  1  3  2  0  0  0  0
  1 16  1  0  0  0  0
  2  6  2  0  0  0  0
  2 17  1  0  0  0  0
  3  7  1  0  0  0  0
  3 18  1  0  0  0  0
  4  5  2  0  0  0  0
  4  6  1  0  0  0  0
  4 19  1  0  0  0  0
  5 14  1  0  0  0  0
  5 20  1  0  0  0  0
  6  8  1  0  0  0  0
  7  8  2  0  0  0  0
  7 13  1  0  0  0  0
  8 14  1  0  0  0  0
  9 11  2  0  0  0  0
  9 13  1  0  0  0  0
  9 21  1  0  0  0  0
 10 12  2  0  0  0  0
 10 13  1  0  0  0  0
 10 22  1  0  0  0  0
 11 15  1  0  0  0  0
 11 23  1  0  0  0  0
 12 15  1  0  0  0  0
 12 24  1  0  0  0  0
 13 25  1  0  0  0  0
 14 26  1  0  0  0  0
 15 27  1  0  0  0  0
M  END
$$$$
