23
0 1 C11ClH10N
C                     3.393607678703    -0.249727473014    -3.078607853077
C                     4.525469926457    -0.673465510613    -2.372321089075
C                     2.426267932814     0.520083078050    -2.435971778125
C                     4.675285535283    -0.322332041556    -1.030846546363
C                     2.547609320284     0.891488220068    -1.086216585751
C                     3.690438067215     0.451101045022    -0.406600332000
C                     0.121307954053     0.986590646593    -0.441777196575
C                     1.269778867781     3.055927084990    -1.176606403460
C                    -0.917273951314     1.339019726674    -1.217834959784
C                     0.190683303335     3.337347806668    -1.926034069682
C                     1.441222060334     1.736219378988    -0.447071196518
N                    -0.873396741340     2.440368589857    -2.082030844045
Cl                    3.947981514090     0.854294920439     1.297064017362
H                     3.268658831979    -0.519292841846    -4.124042603323
H                     5.289260822162    -1.274020291918    -2.859084481721
H                     1.546100591318     0.851719298536    -2.980103081676
H                     5.545721456045    -0.641857253101    -0.466390133537
H                     0.035087655881     0.104487188561     0.185228364727
H                     2.075087266442     3.781837232244    -1.119728018518
H                    -1.845085154419     0.774925366312    -1.231451149799
H                     0.093519234147     4.272287757065    -2.469816497282
H                     1.741535345077     1.936104608340     0.585415735697
H                    -1.762179722839     2.835639560575    -2.357222784821
