24
0 1 C12H12
C                    -4.781324096798     1.493910409539     0.153512726576
C                    -4.523229813489     0.941381423495    -1.103791846818
C                    -3.755830664764     1.551946433132     1.105921838009
C                    -3.247131876591     0.450383618311    -1.405345104893
C                    -2.485325723516     1.060949257668     0.800053039238
C                    -2.216583516294     0.504413606373    -0.459638552010
C                     0.619134976354    -1.206692366307     0.918942235388
C                     1.289129851771     1.054599670901     0.067699370970
C                    -0.462098172976    -1.182034835582     0.131615135468
C                     0.207536983649     1.078179812700    -0.719167466487
C                     1.627893189684    -0.091185128722     0.983405698299
C                    -0.821167781455    -0.029043526075    -0.779182909187
H                    -5.770984415722     1.876033268652     0.390814409586
H                    -5.312631600290     0.891858543572    -1.849810548157
H                    -3.949320131345     1.980516657721     2.086377791409
H                    -3.051962050111     0.021195208904    -2.386296061239
H                    -1.689654731966     1.106211340277     1.539656287122
H                     0.798370208082    -2.073340150838     1.553832362501
H                     1.975661890739     1.900100211151     0.058061831565
H                    -1.156712160854    -2.020402008823     0.138646186064
H                     0.017477749582     1.942684281359    -1.353132290204
H                     2.628182556770    -0.479656077031     0.738762469965
H                     1.715870578449     0.272505461539     2.018763009415
H                    -0.858777988057    -0.406555351937    -1.811741275033
