22
0 1 C11H9NO
C                   -12.636852514390   -10.332003355920    18.690203799475
C                   -11.705487373013   -11.154133906517    19.332679015140
C                   -13.015032198934    -9.125057677774    19.288003869433
C                   -11.342819867512    -8.089398852067    24.695700716258
C                   -11.157960900229   -10.782298638679    20.562155915893
C                   -12.473050593133    -8.754043349002    20.519259424752
C                   -11.814136577379    -8.515013484349    23.421974324071
C                   -10.049212134059    -8.370158096940    25.032512776707
C                   -11.545549932382    -9.580143972246    21.183492925623
C                   -11.024833545630    -9.187860386803    22.512427847021
C                    -9.641834387819    -9.516368725464    22.880343483384
N                    -9.257642239434    -9.046993677911    24.150071322607
O                    -8.815551494778   -10.136808118351    22.204126198358
H                   -13.054456118091   -10.622006141306    17.729395957778
H                   -11.398545101228   -12.089985856794    18.872450689837
H                   -13.721784173205    -8.466299578794    18.789607515956
H                   -11.988414974425    -7.564674249575    25.389981184906
H                   -10.423977329110   -11.417368051031    21.042538119309
H                   -12.750408916616    -7.797666720848    20.954817741331
H                   -12.850449603705    -8.313686125387    23.163813226848
H                    -9.596084938291    -8.091245955705    25.978144884940
H                    -8.296029402780    -9.268559456337    24.388714850854
