
  -OEChem-12122420533D

 23 24  0     0  0  0  0  0  0999 V2000
   -0.3253   -0.5892    2.0131 C   0  0  0  0  0  0  0  0  0  0  0  0
   -0.2226   -0.7367    0.6254 C   0  0  0  0  0  0  0  0  0  0  0  0
   -0.3479   -1.7303    2.8079 C   0  0  0  0  0  0  0  0  0  0  0  0
   -0.1597   -2.0122    0.0799 C   0  0  0  0  0  0  0  0  0  0  0  0
   -0.2670   -3.0358    2.2876 C   0  0  0  0  0  0  0  0  0  0  0  0
   -0.1836   -3.1715    0.8861 C   0  0  0  0  0  0  0  0  0  0  0  0
   -0.5697   -5.6626    0.3787 C   0  0  0  0  0  0  0  0  0  0  0  0
   -0.2809   -4.1508    3.3236 C   0  0  0  0  0  0  0  0  0  0  0  0
   -1.0739   -6.0047    1.7607 C   0  0  0  0  0  0  0  0  0  0  0  0
   -0.0793   -5.5898    2.8559 C   0  0  0  0  0  0  0  0  0  0  0  0
   -0.0733   -4.3889    0.1674 N   0  0  0  0  0  0  0  0  0  0  0  0
   -0.5348   -6.4809   -0.5379 O   0  0  0  0  0  0  0  0  0  0  0  0
   -0.3823    0.3969    2.4652 H   0  0  0  0  0  0  0  0  0  0  0  0
   -0.2001    0.1320   -0.0269 H   0  0  0  0  0  0  0  0  0  0  0  0
   -0.4178   -1.6206    3.8886 H   0  0  0  0  0  0  0  0  0  0  0  0
   -0.0974   -2.1300   -1.0001 H   0  0  0  0  0  0  0  0  0  0  0  0
    0.4804   -3.9152    4.0767 H   0  0  0  0  0  0  0  0  0  0  0  0
   -1.2430   -4.0989    3.8509 H   0  0  0  0  0  0  0  0  0  0  0  0
   -2.0423   -5.5147    1.9259 H   0  0  0  0  0  0  0  0  0  0  0  0
   -1.2471   -7.0819    1.7566 H   0  0  0  0  0  0  0  0  0  0  0  0
    0.9456   -5.7435    2.5003 H   0  0  0  0  0  0  0  0  0  0  0  0
   -0.2067   -6.2451    3.7238 H   0  0  0  0  0  0  0  0  0  0  0  0
    0.2078   -4.2773   -0.8017 H   0  0  0  0  0  0  0  0  0  0  0  0
  1  2  1  0  0  0  0
  1  3  2  0  0  0  0
  1 13  1  0  0  0  0
  2  4  2  0  0  0  0
  2 14  1  0  0  0  0
  3  5  1  0  0  0  0
  3 15  1  0  0  0  0
  4  6  1  0  0  0  0
  4 16  1  0  0  0  0
  5  6  2  0  0  0  0
  5  8  1  0  0  0  0
  6 11  1  0  0  0  0
  7  9  1  0  0  0  0
  7 11  1  0  0  0  0
  7 12  2  0  0  0  0
  8 10  1  0  0  0  0
  8 17  1  0  0  0  0
  8 18  1  0  0  0  0
  9 10  1  0  0  0  0
  9 19  1  0  0  0  0
  9 20  1  0  0  0  0
 10 21  1  0  0  0  0
 10 22  1  0  0  0  0
 11 23  1  0  0  0  0
M  END
$$$$
