
  -OEChem-12102412493D

 23 24  0     0  0  0  0  0  0999 V2000
    4.6000   -0.1937   -0.8784 C   0  0  0  0  0  0  0  0  0  0  0  0
    4.5768   -0.6303   -2.2054 C   0  0  0  0  0  0  0  0  0  0  0  0
    3.5378    0.5665   -0.3865 C   0  0  0  0  0  0  0  0  0  0  0  0
    3.4923   -0.3001   -3.0197 C   0  0  0  0  0  0  0  0  0  0  0  0
    2.4311    0.9170   -1.1776 C   0  0  0  0  0  0  0  0  0  0  0  0
    2.4382    0.4625   -2.5074 C   0  0  0  0  0  0  0  0  0  0  0  0
   -0.0185    1.0348   -0.4938 C   0  0  0  0  0  0  0  0  0  0  0  0
    1.1428    3.1128   -1.1978 C   0  0  0  0  0  0  0  0  0  0  0  0
   -1.1161    1.4905   -1.1197 C   0  0  0  0  0  0  0  0  0  0  0  0
    0.0026    3.4924   -1.7979 C   0  0  0  0  0  0  0  0  0  0  0  0
    1.3156    1.7561   -0.5407 C   0  0  0  0  0  0  0  0  0  0  0  0
   -1.1155    2.6611   -1.8798 N   0  0  0  0  0  0  0  0  0  0  0  0
    1.1176    0.8262   -3.6122 Cl  0  0  0  0  0  0  0  0  0  0  0  0
    5.4372   -0.4425   -0.2317 H   0  0  0  0  0  0  0  0  0  0  0  0
    5.3931   -1.2232   -2.6092 H   0  0  0  0  0  0  0  0  0  0  0  0
    3.5573    0.9058    0.6472 H   0  0  0  0  0  0  0  0  0  0  0  0
    3.4560   -0.6300   -4.0535 H   0  0  0  0  0  0  0  0  0  0  0  0
   -0.0752    0.0981    0.0524 H   0  0  0  0  0  0  0  0  0  0  0  0
    1.9894    3.7927   -1.1993 H   0  0  0  0  0  0  0  0  0  0  0  0
   -2.0589    0.9527   -1.0934 H   0  0  0  0  0  0  0  0  0  0  0  0
   -0.0994    4.4592   -2.2813 H   0  0  0  0  0  0  0  0  0  0  0  0
    1.6557    1.9162    0.4928 H   0  0  0  0  0  0  0  0  0  0  0  0
   -2.0073    3.0948   -2.0705 H   0  0  0  0  0  0  0  0  0  0  0  0
  1  2  1  0  0  0  0
  1  3  2  0  0  0  0
  1 14  1  0  0  0  0
  2  4  2  0  0  0  0
  2 15  1  0  0  0  0
  3  5  1  0  0  0  0
  3 16  1  0  0  0  0
  4  6  1  0  0  0  0
  4 17  1  0  0  0  0
  5  6  2  0  0  0  0
  5 11  1  0  0  0  0
  6 13  1  0  0  0  0
  7  9  2  0  0  0  0
  7 11  1  0  0  0  0
  7 18  1  0  0  0  0
  8 10  2  0  0  0  0
  8 11  1  0  0  0  0
  8 19  1  0  0  0  0
  9 12  1  0  0  0  0
  9 20  1  0  0  0  0
 10 12  1  0  0  0  0
 10 21  1  0  0  0  0
 11 22  1  0  0  0  0
 12 23  1  0  0  0  0
M  END
$$$$
