
  -OEChem-12102412493D

 22 23  0     0  0  0  0  0  0999 V2000
    1.9084   -0.9521   -0.1227 C   0  0  0  0  0  0  0  0  0  0  0  0
    0.7847   -0.4406    0.5313 C   0  0  0  0  0  0  0  0  0  0  0  0
    6.3115   -2.5374    3.2627 C   0  0  0  0  0  0  0  0  0  0  0  0
    5.9731   -3.5497    4.1630 C   0  0  0  0  0  0  0  0  0  0  0  0
    2.9282   -1.5375    0.6318 C   0  0  0  0  0  0  0  0  0  0  0  0
    0.6940   -0.5106    1.9233 C   0  0  0  0  0  0  0  0  0  0  0  0
    5.2894   -1.8921    2.5663 C   0  0  0  0  0  0  0  0  0  0  0  0
    4.6190   -3.8643    4.3194 C   0  0  0  0  0  0  0  0  0  0  0  0
    2.8546   -1.6328    2.0287 C   0  0  0  0  0  0  0  0  0  0  0  0
    1.7204   -1.0990    2.6740 C   0  0  0  0  0  0  0  0  0  0  0  0
    3.9572   -2.2807    2.7890 C   0  0  0  0  0  0  0  0  0  0  0  0
    3.6298   -3.2560    3.6564 N   0  0  0  0  0  0  0  0  0  0  0  0
    1.6759   -1.1344    4.0423 O   0  0  0  0  0  0  0  0  0  0  0  0
    1.9868   -0.9045   -1.2050 H   0  0  0  0  0  0  0  0  0  0  0  0
   -0.0220    0.0163   -0.0360 H   0  0  0  0  0  0  0  0  0  0  0  0
    7.3491   -2.2499    3.1112 H   0  0  0  0  0  0  0  0  0  0  0  0
    6.7306   -4.0817    4.7316 H   0  0  0  0  0  0  0  0  0  0  0  0
    3.7963   -1.9572    0.1297 H   0  0  0  0  0  0  0  0  0  0  0  0
   -0.1754   -0.0980    2.4338 H   0  0  0  0  0  0  0  0  0  0  0  0
    5.5088   -1.0854    1.8731 H   0  0  0  0  0  0  0  0  0  0  0  0
    4.3151   -4.6495    5.0110 H   0  0  0  0  0  0  0  0  0  0  0  0
    0.8479   -0.7234    4.3370 H   0  0  0  0  0  0  0  0  0  0  0  0
  1  2  1  0  0  0  0
  1  5  2  0  0  0  0
  1 14  1  0  0  0  0
  2  6  2  0  0  0  0
  2 15  1  0  0  0  0
  3  4  1  0  0  0  0
  3  7  2  0  0  0  0
  3 16  1  0  0  0  0
  4  8  2  0  0  0  0
  4 17  1  0  0  0  0
  5  9  1  0  0  0  0
  5 18  1  0  0  0  0
  6 10  1  0  0  0  0
  6 19  1  0  0  0  0
  7 11  1  0  0  0  0
  7 20  1  0  0  0  0
  8 12  1  0  0  0  0
  8 21  1  0  0  0  0
  9 10  2  0  0  0  0
  9 11  1  0  0  0  0
 10 13  1  0  0  0  0
 11 12  2  0  0  0  0
 13 22  1  0  0  0  0
M  END
$$$$
