
  -OEChem-12122420533D

 31 33  0     0  0  0  0  0  0999 V2000
    1.8026   -0.9904   -0.1339 C   0  0  0  0  0  0  0  0  0  0  0  0
    2.3839    0.0469    0.6031 C   0  0  0  0  0  0  0  0  0  0  0  0
    1.2155   -2.0697    0.5349 C   0  0  0  0  0  0  0  0  0  0  0  0
    2.8396   -1.7684    6.2596 C   0  0  0  0  0  0  0  0  0  0  0  0
    2.3809    0.0034    2.0005 C   0  0  0  0  0  0  0  0  0  0  0  0
    1.2127   -2.1129    1.9323 C   0  0  0  0  0  0  0  0  0  0  0  0
    2.8516   -1.7300    4.8640 C   0  0  0  0  0  0  0  0  0  0  0  0
    1.7788   -1.2061    6.9736 C   0  0  0  0  0  0  0  0  0  0  0  0
   -2.4134    1.2425    2.7923 C   0  0  0  0  0  0  0  0  0  0  0  0
   -1.2912    1.9640    3.2004 C   0  0  0  0  0  0  0  0  0  0  0  0
   -2.4359   -0.1102    3.1330 C   0  0  0  0  0  0  0  0  0  0  0  0
    1.8008   -1.0798    2.6758 C   0  0  0  0  0  0  0  0  0  0  0  0
    1.7950   -1.1247    4.1688 C   0  0  0  0  0  0  0  0  0  0  0  0
    0.7267   -0.5582    4.8786 C   0  0  0  0  0  0  0  0  0  0  0  0
    0.7246   -0.6021    6.2800 C   0  0  0  0  0  0  0  0  0  0  0  0
   -0.4070    0.0907    4.1502 C   0  0  0  0  0  0  0  0  0  0  0  0
   -0.2845    1.3997    3.8786 N   0  0  0  0  0  0  0  0  0  0  0  0
   -1.4409   -0.6954    3.8106 N   0  0  0  0  0  0  0  0  0  0  0  0
   -0.3473   -0.0314    6.9222 O   0  0  0  0  0  0  0  0  0  0  0  0
    1.8041   -0.9562   -1.2205 H   0  0  0  0  0  0  0  0  0  0  0  0
    2.8365    0.8921    0.0904 H   0  0  0  0  0  0  0  0  0  0  0  0
    0.7562   -2.8765   -0.0309 H   0  0  0  0  0  0  0  0  0  0  0  0
    3.6584   -2.2375    6.7988 H   0  0  0  0  0  0  0  0  0  0  0  0
    2.8177    0.8151    2.5756 H   0  0  0  0  0  0  0  0  0  0  0  0
    0.7436   -2.9422    2.4547 H   0  0  0  0  0  0  0  0  0  0  0  0
    3.6749   -2.1663    4.3060 H   0  0  0  0  0  0  0  0  0  0  0  0
    1.7699   -1.2362    8.0621 H   0  0  0  0  0  0  0  0  0  0  0  0
   -3.2231    1.7075    2.2382 H   0  0  0  0  0  0  0  0  0  0  0  0
   -1.1906    3.0254    2.9768 H   0  0  0  0  0  0  0  0  0  0  0  0
   -3.2736   -0.7484    2.8542 H   0  0  0  0  0  0  0  0  0  0  0  0
   -0.2290   -0.1276    7.8802 H   0  0  0  0  0  0  0  0  0  0  0  0
  1  2  1  0  0  0  0
  1  3  2  0  0  0  0
  1 20  1  0  0  0  0
  2  5  2  0  0  0  0
  2 21  1  0  0  0  0
  3  6  1  0  0  0  0
  3 22  1  0  0  0  0
  4  7  2  0  0  0  0
  4  8  1  0  0  0  0
  4 23  1  0  0  0  0
  5 12  1  0  0  0  0
  5 24  1  0  0  0  0
  6 12  2  0  0  0  0
  6 25  1  0  0  0  0
  7 13  1  0  0  0  0
  7 26  1  0  0  0  0
  8 15  2  0  0  0  0
  8 27  1  0  0  0  0
  9 10  1  0  0  0  0
  9 11  2  0  0  0  0
  9 28  1  0  0  0  0
 10 17  2  0  0  0  0
 10 29  1  0  0  0  0
 11 18  1  0  0  0  0
 11 30  1  0  0  0  0
 12 13  1  0  0  0  0
 13 14  2  0  0  0  0
 14 15  1  0  0  0  0
 14 16  1  0  0  0  0
 15 19  1  0  0  0  0
 16 17  1  0  0  0  0
 16 18  2  0  0  0  0
 19 31  1  0  0  0  0
M  END
$$$$
