17   
torsion grid (-165,)
C       -0.3360843868    0.7394895776   -1.1216687975
C        0.9124069173    1.3384509012   -0.4860897388
C        1.6867331642    0.3666384979    0.4094776426
C        0.7156040664   -0.3489535731    1.3515705222
C       -0.2923679357   -1.1689526220    0.5520387429
N       -0.8581202270   -0.3814077728   -0.5251483810
O       -0.8697521960    1.2472088793   -2.1053585070
O       -1.4053551072   -1.6040834254    1.3365964001
H        1.5258869807    1.7302459301   -1.3006808641
H        0.5763226199    2.2044023582    0.0973360048
H        2.2150938688   -0.3722303348   -0.2062481990
H        2.4500565651    0.9030666876    0.9819223189
H        1.2497898726   -1.0164952273    2.0378754699
H        0.1626030784    0.3825230536    1.9528770163
H        0.2075078926   -2.0587636962    0.1344207612
H       -1.6709978661   -0.7720848678   -0.9918539568
H       -1.0684084536   -1.9264757002    2.1876633639
17   
torsion grid (-150,)
C       -0.3392382043    0.7378660291   -1.1196988002
C        0.9058832698    1.3377368485   -0.4778813817
C        1.6843725100    0.3631741630    0.4109447330
C        0.7176096851   -0.3683522368    1.3456056822
C       -0.2830674447   -1.1874149481    0.5375210688
N       -0.8562648721   -0.3892357183   -0.5318733323
O       -0.8747749413    1.2529078449   -2.0987369350
O       -1.3836806849   -1.6599577589    1.3168900041
H        1.5189995880    1.7387434530   -1.2882252018
H        0.5648237724    2.1976567701    0.1115834597
H        2.2181948025   -0.3675710901   -0.2094818848
H        2.4431517723    0.8992655005    0.9896503468
H        1.2562728054   -1.0394824414    2.0245962740
H        0.1619093650    0.3567143181    1.9533903781
H        0.2259048127   -2.0637809972    0.1055778304
H       -1.6689606226   -0.7786639133   -0.9998950595
H       -1.0902167596   -1.7670271573    2.2347626170
17   
torsion grid (-135,)
C       -0.3436692183    0.7351288533   -1.1168185315
C        0.8980839861    1.3370195624   -0.4695978102
C        1.6844210807    0.3606311495    0.4106657829
C        0.7264534409   -0.3866854698    1.3419935940
C       -0.2711983194   -1.2034973564    0.5297393851
N       -0.8524792674   -0.3983168163   -0.5347277951
O       -0.8830501074    1.2557617773   -2.0911248857
O       -1.3539131239   -1.7155252390    1.3063657747
H        1.5084117393    1.7490148110   -1.2764740524
H        0.5520279016    2.1898121181    0.1273564454
H        2.2223720032   -0.3614413681   -0.2161391621
H        2.4401988537    0.8969826524    0.9930248779
H        1.2706593051   -1.0611447702    2.0125229674
H        0.1710756025    0.3324365381    1.9585877078
H        0.2425674140   -2.0686532863    0.0846912983
H       -1.6645886872   -0.7894307303   -1.0022351078
H       -1.1464537496   -1.6095137598    2.2468993101
17   
torsion grid (-120,)
C       -0.3494157709    0.7320501947   -1.1086076870
C        0.8908633568    1.3373959517   -0.4613625307
C        1.6870116740    0.3598203279    0.4086787244
C        0.7400791731   -0.4023429165    1.3395179467
C       -0.2573730371   -1.2183207831    0.5279280436
N       -0.8480066329   -0.4092720132   -0.5328901069
O       -0.8958032275    1.2568819412   -2.0767799117
O       -1.3181191820   -1.7668641380    1.3055468586
H        1.4959908776    1.7584534331   -1.2675023094
H        0.5424305709    2.1845909854    0.1422880844
H        2.2269402379   -0.3541335079   -0.2256426459
H        2.4421008327    0.8970981160    0.9910983849
H        1.2892266025   -1.0790186669    2.0024904052
H        0.1861161865    0.3115201691    1.9650784988
H        0.2572415692   -2.0765340670    0.0736064923
H       -1.6577573505   -0.8049683266   -1.0005741388
H       -1.2306070264   -1.4637780339    2.2218556902
17   
torsion grid (-105,)
C       -0.3556059338    0.7284385480   -1.0975672456
C        0.8847813605    1.3376405931   -0.4541626713
C        1.6920309461    0.3599021072    0.4055411474
C        0.7572957602   -0.4143709967    1.3387622879
C       -0.2425775961   -1.2309975774    0.5310945978
N       -0.8456459595   -0.4176302131   -0.5228226953
O       -0.9098091211    1.2540422211   -2.0607869168
O       -1.2794428284   -1.8096270192    1.3135904869
H        1.4826243061    1.7665634903   -1.2615996892
H        0.5352154745    2.1797725201    0.1559767264
H        2.2321498942   -0.3470636621   -0.2364385168
H        2.4479739701    0.8987468945    0.9854425234
H        1.3122801650   -1.0923191981    1.9944914868
H        0.2060292208    0.2939067748    1.9740449983
H        0.2701769059   -2.0850877635    0.0697212869
H       -1.6520945388   -0.8197766701   -0.9908474028
H       -1.3344631721   -1.3395613831    2.1602893947
17   
torsion grid (-90,)
C       -0.3373123520    0.6202503599   -1.1502298436
C        0.8440611461    1.3268254897   -0.4960916453
C        1.6718882572    0.4332478800    0.4329162063
C        0.7490407114   -0.3438548015    1.3755997326
C       -0.1859270492   -1.2468212674    0.5813794112
N       -0.8019412836   -0.5100665569   -0.5219072834
O       -0.8740291784    1.0579940162   -2.1655125729
O       -1.2020385882   -1.8530246407    1.3655230894
H        1.4449019724    1.7537703073   -1.3022424778
H        0.4274582416    2.1729278561    0.0647080062
H        2.2662493527   -0.2739889190   -0.1590626353
H        2.3820394720    1.0371707225    1.0065944319
H        1.3142341745   -0.9628453411    2.0784625649
H        0.1456837550    0.3636015245    1.9628095989
H        0.3787465417   -2.0956111135    0.1758638071
H       -1.5565157683   -0.9860930516   -1.0072739783
H       -1.4656205512   -1.2309037986    2.0631933866
17   
torsion grid (-75,)
C       -0.3433702588    0.6161253619   -1.1345994845
C        0.8386164561    1.3282499336   -0.4887619087
C        1.6806995209    0.4340512060    0.4269243964
C        0.7710918394   -0.3477141074    1.3779729224
C       -0.1726229187   -1.2521226079    0.5940648678
N       -0.8084537223   -0.5100616150   -0.4944791730
O       -0.8841520537    1.0436724303   -2.1515022103
O       -1.1704582496   -1.8633332814    1.3955619188
H        1.4277611275    1.7635245248   -1.2990410285
H        0.4223903339    2.1682390709    0.0815255050
H        2.2699039372   -0.2689371019   -0.1753781227
H        2.3962714842    1.0389225725    0.9928651127
H        1.3439289953   -0.9683534947    2.0727692030
H        0.1738279753    0.3550162879    1.9763036783
H        0.3851515513   -2.1023140689    0.1830421354
H       -1.5458456133   -1.0006109801   -0.9922761132
H       -1.5838215509   -1.1717754648    1.9397380996
17   
torsion grid (-60,)
C       -0.3504927941    0.6137158225   -1.1157186862
C        0.8347759097    1.3298558615   -0.4821879708
C        1.6904632854    0.4351621302    0.4203093115
C        0.7933147455   -0.3487261480    1.3805344008
C       -0.1606310289   -1.2558008282    0.6096088790
N       -0.8118186277   -0.5125172314   -0.4674591465
O       -0.9002094162    1.0333695588   -2.1305139959
O       -1.1479643146   -1.8561994491    1.4338590951
H        1.4112569146    1.7692161362   -1.2993693578
H        0.4227843129    2.1667595909    0.0956557249
H        2.2734566052   -0.2645596138   -0.1919690006
H        2.4120800059    1.0404794824    0.9780580504
H        1.3742363305   -0.9698820223    2.0679133467
H        0.2016716271    0.3494530959    1.9884261710
H        0.3884997355   -2.1111562537    0.1982044313
H       -1.5322752603   -1.0150439942   -0.9786815135
H       -1.6982291768   -1.1415474720    1.7980600594
17   
torsion grid (-45,)
C       -0.3518721920    0.6093388996   -1.1023681440
C        0.8311902401    1.3325378928   -0.4751769585
C        1.7005634223    0.4349862640    0.4111921230
C        0.8147538121   -0.3462658691    1.3834127890
C       -0.1544188229   -1.2521049932    0.6281358270
N       -0.8228312220   -0.5056807394   -0.4353789980
O       -0.8976980880    1.0099625520   -2.1261117211
O       -1.1314676358   -1.8349680849    1.4807298180
H        1.3950103968    1.7859938026   -1.2933143139
H        0.4165216509    2.1580966418    0.1171496098
H        2.2721981281   -0.2646005207   -0.2120784706
H        2.4323147499    1.0387153066    0.9573355874
H        1.4029602593   -0.9705283949    2.0616821098
H        0.2328349071    0.3500292087    2.0012579221
H        0.3849255475   -2.1111761827    0.2109229970
H       -1.5243252877   -1.0205911940   -0.9613717571
H       -1.7997410120   -1.1511659231    1.6587113787
17   
torsion grid (-30,)
C       -0.3554528721    0.6093715043   -1.0880680593
C        0.8287246670    1.3360856234   -0.4691560976
C        1.7097261550    0.4348681149    0.4020246496
C        0.8343497355   -0.3428083821    1.3854752243
C       -0.1522753033   -1.2454150811    0.6481828560
N       -0.8274360494   -0.5032020441   -0.4125408971
O       -0.9023751320    0.9978680942   -2.1153425377
O       -1.1242454753   -1.7940545760    1.5352626810
H        1.3810025294    1.7958240306   -1.2916367363
H        0.4178772032    2.1561878529    0.1332517991
H        2.2706659957   -0.2641324676   -0.2316295425
H        2.4505396790    1.0359913376    0.9387184675
H        1.4291849341   -0.9693202702    2.0559698258
H        0.2624534817    0.3527092284    2.0121294598
H        0.3726013653   -2.1141467243    0.2314737595
H       -1.5065395490   -1.0300140855   -0.9565812732
H       -1.8878825109   -1.1932334895    1.5271962197
17   
torsion grid (-15,)
C       -0.3563873765    0.6117955318   -1.0786860413
C        0.8272681151    1.3409257831   -0.4633825897
C        1.7175906586    0.4331440609    0.3914860750
C        0.8506858108   -0.3375060908    1.3870924697
C       -0.1558290428   -1.2329545681    0.6685782342
N       -0.8285966574   -0.4997359091   -0.3989577755
O       -0.9006284956    0.9897030359   -2.1110522919
O       -1.1235650433   -1.7372189411    1.5920972125
H        1.3700976656    1.8097597100   -1.2869734997
H        0.4190338009    2.1531787806    0.1512500171
H        2.2645701567   -0.2675292896   -0.2524603273
H        2.4698277339    1.0291658531    0.9178436477
H        1.4499846379   -0.9675927894    2.0503677808
H        0.2914378641    0.3608102608    2.0208193394
H        0.3519730517   -2.1142919950    0.2552363195
H       -1.4882119409   -1.0358458461   -0.9580522666
H       -1.9583320850   -1.2732289210    1.4195234948
17   
torsion grid (0,)
C       -0.3553769692    0.6165206231   -1.0747504870
C        0.8267741728    1.3466020069   -0.4587465772
C        1.7232689786    0.4308845163    0.3811928674
C        0.8634611250   -0.3319800540    1.3883031929
C       -0.1642996770   -1.2163824632    0.6875842889
N       -0.8239540872   -0.4972807056   -0.3968386684
O       -0.8957246741    0.9882089886   -2.1115498759
O       -1.1301724475   -1.6659771512    1.6441067101
H        1.3633405662    1.8244363819   -1.2812350465
H        0.4205712590    2.1510634216    0.1672825739
H        2.2561740937   -0.2721517855   -0.2718548474
H        2.4867104449    1.0204631618    0.8985792619
H        1.4659205075   -0.9672139609    2.0438323024
H        0.3189142584    0.3709740072    2.0287525180
H        0.3233802089   -2.1145205225    0.2837157718
H       -1.4715367307   -1.0385630220   -0.9648120788
H       -2.0065321757   -1.3825047767    1.3411678927
17   
torsion grid (15,)
C       -0.3525312949    0.6229987911   -1.0759847591
C        0.8283627921    1.3520642401   -0.4567251775
C        1.7267038707    0.4287797067    0.3727799783
C        0.8715658505   -0.3265310172    1.3893454144
C       -0.1760882475   -1.1980188653    0.7034074434
N       -0.8136928445   -0.4956455963   -0.4048717755
O       -0.8903445460    0.9945161244   -2.1146425311
O       -1.1438207380   -1.5876570345    1.6839263532
H        1.3628592471    1.8361547207   -1.2768933278
H        0.4236211856    2.1508706666    0.1773117194
H        2.2477352091   -0.2773437943   -0.2863834698
H        2.4994576761    1.0118449504    0.8837003320
H        1.4759911207   -0.9679323581    2.0369748155
H        0.3422678562    0.3818348145    2.0359777474
H        0.2905997398   -2.1152293265    0.3152839224
H       -1.4641495117   -1.0347202850   -0.9711235127
H       -2.0276185113   -1.5134070716    1.2926466262
17   
torsion grid (30,)
C       -0.3491817183    0.6317972847   -1.0798278787
C        0.8324627395    1.3569834159   -0.4571844513
C        1.7285485324    0.4267592178    0.3666230250
C        0.8747740672   -0.3215700578    1.3894139084
C       -0.1893923269   -1.1808836934    0.7144425871
N       -0.7960678945   -0.4979061942   -0.4228392700
O       -0.8905497437    1.0118623714   -2.1141196297
O       -1.1656897997   -1.5066032995    1.7076690497
H        1.3681549306    1.8432545253   -1.2753502582
H        0.4302700523    2.1539274925    0.1807079834
H        2.2403817170   -0.2827992886   -0.2959320771
H        2.5084649060    1.0034157411    0.8739922570
H        1.4787776375   -0.9684662561    2.0317316247
H        0.3581239911    0.3923616381    2.0399225682
H        0.2556067114   -2.1194597976    0.3509544315
H       -1.4638608934   -1.0261751972   -0.9781957673
H       -2.0199040546   -1.6539192366    1.2727216961
17   
torsion grid (45,)
C       -0.3464716751    0.6457383057   -1.0836361305
C        0.8472706743    1.3572934752   -0.4676547391
C        1.7293302648    0.4238669130    0.3670393811
C        0.8650897686   -0.3109605848    1.3909498837
C       -0.2026818962   -1.1648585736    0.7172669156
N       -0.7919717343   -0.4850516149   -0.4324334460
O       -0.8950877204    1.0401903807   -2.1093425286
O       -1.1824309174   -1.4622853801    1.7119210719
H        1.3915858114    1.8265421022   -1.2901858550
H        0.4564001747    2.1678373065    0.1599828576
H        2.2379064764   -0.2949675262   -0.2879748519
H        2.5121193214    0.9960378509    0.8750824620
H        1.4606254427   -0.9586120471    2.0401187701
H        0.3507648556    0.4117255399    2.0338771867
H        0.2350333186   -2.1109269556    0.3631429856
H       -1.4962537870   -0.9885298948   -0.9646354840
H       -1.9703095244   -1.8304606312    1.2812113197
17   
torsion grid (60,)
C       -0.3439894905    0.6621750518   -1.0878284496
C        0.8676089182    1.3542069498   -0.4834502315
C        1.7286819469    0.4199034277    0.3713434566
C        0.8465666014   -0.2972581462    1.3928613579
C       -0.2166540177   -1.1508039321    0.7141720471
N       -0.7951097580   -0.4656466724   -0.4394560542
O       -0.9019875979    1.0756963855   -2.1014777469
O       -1.2035298207   -1.4416848636    1.7006742101
H        1.4241690090    1.7961652940   -1.3130159840
H        0.4929931469    2.1857401827    0.1263362506
H        2.2370190297   -0.3115875693   -0.2697729611
H        2.5120103789    0.9886108131    0.8824731780
H        1.4292010020   -0.9422680645    2.0560639831
H        0.3284782690    0.4356147331    2.0215306680
H        0.2234772166   -2.0971375815    0.3636159443
H       -1.5438798189   -0.9357825758   -0.9398520525
H       -1.8841361613   -2.0133647666    1.3105121826
17   
torsion grid (75,)
C       -0.3437392590    0.6813366388   -1.0900226099
C        0.8907238351    1.3478556160   -0.5018625215
C        1.7262108413    0.4146577867    0.3789200790
C        0.8214933890   -0.2825521712    1.3949522476
C       -0.2310174439   -1.1390185694    0.7055859787
N       -0.8062692176   -0.4405243458   -0.4423442841
O       -0.9118929166    1.1177637182   -2.0887457007
O       -1.2295342411   -1.4439199200    1.6751812557
H        1.4610689886    1.7525810335   -1.3412093545
H        0.5389163748    2.2064031506    0.0834356300
H        2.2363110877   -0.3311553720   -0.2442058680
H        2.5082927576    0.9808366611    0.8947659864
H        1.3879698888   -0.9221873592    2.0770969491
H        0.2951276938    0.4610815138    2.0042841587
H        0.2201044253   -2.0785005708    0.3510711670
H       -1.5971054726   -0.8752833685   -0.9081998477
H       -1.7657418776   -2.1867957759    1.3560265327
17   
torsion grid (90,)
C       -0.3427181016    0.6981407946   -1.0937474355
C        0.9101122002    1.3410369231   -0.5168843666
C        1.7225771957    0.4090307679    0.3866130168
C        0.7971033704   -0.2716863279    1.3955519846
C       -0.2466157377   -1.1288013155    0.6935220074
N       -0.8201882214   -0.4159186054   -0.4451390124
O       -0.9153018999    1.1536421482   -2.0816444991
O       -1.2636223667   -1.4522473198    1.6385842513
H        1.4923331012    1.7149887837   -1.3624342173
H        0.5773591091    2.2205158561    0.0480849255
H        2.2350447617   -0.3483899764   -0.2205514781
H        2.5025516754    0.9731816684    0.9078915851
H        1.3489222871   -0.9080781215    2.0928665090
H        0.2637676308    0.4799164876    1.9890084288
H        0.2155069838   -2.0602732192    0.3326664692
H       -1.6425785983   -0.8209851937   -0.8817426383
H       -1.6333345360   -2.3214946846    1.4220842685
17   
torsion grid (105,)
C       -0.3386696945    0.7095977692   -1.1015594299
C        0.9210376213    1.3382438030   -0.5229165273
C        1.7185719166    0.4031441746    0.3907833083
C        0.7785588545   -0.2686036025    1.3929801709
C       -0.2626947818   -1.1202966562    0.6791924771
N       -0.8306408770   -0.3976086268   -0.4530364885
O       -0.9062464032    1.1751397103   -2.0877014202
O       -1.3058006992   -1.4537387432    1.5950302730
H        1.5118837204    1.7020920699   -1.3668501856
H        0.5946895057    2.2240156645    0.0360087230
H        2.2303869480   -0.3605011432   -0.2092752178
H        2.4985866719    0.9630260628    0.9166337909
H        1.3208507343   -0.9071235804    2.0963211906
H        0.2440285221    0.4868461750    1.9802714980
H        0.2032500235   -2.0486870318    0.3152601581
H       -1.6700377322   -0.7855359910   -0.8721423306
H       -1.5068354767   -2.3974313883    1.5157298087
17   
torsion grid (120,)
C       -0.3366274860    0.7201409976   -1.1076430454
C        0.9282190368    1.3361518001   -0.5249166542
C        1.7131401758    0.3970314879    0.3958798024
C        0.7604680403   -0.2701458104    1.3900518927
C       -0.2765040028   -1.1151564658    0.6616025673
N       -0.8420216582   -0.3816221486   -0.4610061337
O       -0.8971273010    1.1941627470   -2.0936504348
O       -1.3457677471   -1.4636055581    1.5445776063
H        1.5268316872    1.6904218484   -1.3674708007
H        0.6087212122    2.2276467279    0.0286912004
H        2.2257280055   -0.3697661040   -0.1995636529
H        2.4919915433    0.9528953355    0.9277100397
H        1.2954723794   -0.9116880994    2.0968219782
H        0.2247870050    0.4872873949    1.9734666366
H        0.1941619606   -2.0392563543    0.2911317972
H       -1.6860271802   -0.7645396051   -0.8752197318
H       -1.3845268172   -2.4273795277    1.6242667314
17   
torsion grid (135,)
C       -0.3342214287    0.7279468174   -1.1124870968
C        0.9297726968    1.3371295766   -0.5203629363
C        1.7083048002    0.3907809756    0.3986018951
C        0.7475154993   -0.2785593051    1.3837467059
C       -0.2883911230   -1.1155885027    0.6418115345
N       -0.8488302507   -0.3739756402   -0.4730913188
O       -0.8861488296    1.2072351329   -2.1005116085
O       -1.3813905355   -1.4733105754    1.4932506106
H        1.5328702361    1.6942165431   -1.3584973780
H        0.6105240745    2.2265417358    0.0367288126
H        2.2210601688   -0.3743028073   -0.1988764679
H        2.4864760743    0.9413298080    0.9369247707
H        1.2782528081   -0.9251613830    2.0898751463
H        0.2103225989    0.4772064948    1.9677161025
H        0.1827392624   -2.0382713408    0.2658565866
H       -1.6874149371   -0.7590556653   -0.8963091377
H       -1.2805222612   -2.4015831986    1.7503535780
17   
torsion grid (150,)
C       -0.3329355601    0.7338485108   -1.1168381310
C        0.9278331211    1.3384504297   -0.5127842675
C        1.7026188056    0.3840774053    0.4010798295
C        0.7360831998   -0.2921547517    1.3760756982
C       -0.2961196379   -1.1219716489    0.6191528043
N       -0.8534306271   -0.3710797568   -0.4875834042
O       -0.8769298441    1.2189881238   -2.1061952424
O       -1.4059607438   -1.4900942915    1.4440191653
H        1.5346812838    1.7028019494   -1.3450255528
H        0.6059981754    2.2228648954    0.0506971414
H        2.2168505818   -0.3765820127   -0.2006388264
H        2.4789802978    0.9293956044    0.9472432698
H        1.2652334971   -0.9446099287    2.0787792517
H        0.1967069555    0.4596190848    1.9631105054
H        0.1779158386   -2.0415665087    0.2368223136
H       -1.6836522792   -0.7601037639   -0.9236722128
H       -1.1929542104   -2.3293046750    1.8804874566
17   
torsion grid (165,)
C       -0.3327719718    0.7376915441   -1.1199676760
C        0.9236734433    1.3393357755   -0.5037416684
C        1.6967256690    0.3775101428    0.4037258765
C        0.7264336346   -0.3095851381    1.3674487147
C       -0.2994751574   -1.1341036211    0.5951725014
N       -0.8563686816   -0.3720389376   -0.5023168802
O       -0.8706242180    1.2296385392   -2.1092118705
O       -1.4179978740   -1.5166684324    1.4005599878
H        1.5335124982    1.7130583762   -1.3295703225
H        0.5974811777    2.2173959066    0.0670886296
H        2.2142961275   -0.3766950093   -0.2030280641
H        2.4697695419    0.9185026001    0.9587510989
H        1.2558248310   -0.9678544704    2.0653168983
H        0.1832969092    0.4361898534    1.9588223387
H        0.1805754745   -2.0474426307    0.2040494942
H       -1.6780577384   -0.7638236906   -0.9521110034
H       -1.1253748118   -2.2185321417    2.0037417438
17   
torsion grid (180,)
C       -0.3340096296    0.7394869845   -1.1221678801
C        0.9181218218    1.3389748578   -0.4946115902
C        1.6911587385    0.3713037752    0.4066912195
C        0.7191509868   -0.3290385709    1.3591797468
C       -0.2980293612   -1.1503102865    0.5720944971
N       -0.8577927548   -0.3756070031   -0.5155560305
O       -0.8684532143    1.2395487400   -2.1092789425
O       -1.4173796434   -1.5548868467    1.3642707746
H        1.5303105464    1.7222728050   -1.3142212451
H        0.5869675753    2.2105684918    0.0832022489
H        2.2138163282   -0.3754354027   -0.2046495418
H        2.4594695132    0.9094320351    0.9709011347
H        1.2503199554   -0.9924500748    2.0515105787
H        0.1715002693    0.4099425674    1.9553425107
H        0.1915353444   -2.0532115882    0.1688446955
H       -1.6736481798   -0.7678043163   -0.9756574827
H       -1.0821194427   -2.0802075020    2.1088351052
