23   
torsion grid (-165,)
C        0.6602565934    1.4740285783   -0.9956446093
C       -0.4849999188    0.9435161114   -1.4404676598
C       -0.4110248833   -0.6926436855    0.3131286116
C        1.1879387519    1.0524811183    0.3563916012
C       -4.0746669753   -2.8467600942    2.8583685376
C       -1.0179534320   -1.9814684506    0.8117507929
C       -2.1873552729   -1.7307602509    1.7780341496
N        0.6913064182   -0.2602316059    0.7980547133
N       -1.1658767797   -0.0151859239   -0.6621025372
N       -2.7637166277   -2.9980869119    2.2276722463
H        1.2044896253    2.1923927975   -1.6009638777
H       -0.9390943247    1.1909517435   -2.3948913012
H        2.2837176350    1.0142659681    0.3493350319
H        0.9214888873    1.7947058926    1.1267404064
H       -4.7972773822   -2.4992630237    2.1117443099
H       -4.0943091523   -2.1348131165    3.7028663332
H       -4.4175085819   -3.8201689801    3.2230689096
H       -0.2266348856   -2.5369368261    1.3208022485
H       -1.3802871220   -2.5974448594   -0.0199651166
H       -1.8475534143   -1.0849940497    2.6057277575
H       -2.9764506426   -1.1761171795    1.2564958630
H       -1.8538552157   -0.5776212693   -1.1467949528
H       -2.1207942785   -3.4487083984    2.8753852788
23   
torsion grid (-150,)
C        0.6317067899    1.4812744489   -1.0060707191
C       -0.5373195831    0.9687302499   -1.4080551136
C       -0.4085683466   -0.6887100336    0.3227087496
C        1.2107761953    1.0384583328    0.3177773798
C       -4.0973232463   -2.8769157958    2.7493975568
C       -1.0119881304   -1.9730675962    0.8363911977
C       -2.1147031612   -1.7130477309    1.8788318951
N        0.7180884028   -0.2736646006    0.7653932862
N       -1.1963187387    0.0091396443   -0.6120324000
N       -2.6947979752   -2.9738556425    2.3485407278
H        1.1584761367    2.2001637709   -1.6260588972
H       -1.0278185781    1.2317838698   -2.3400587016
H        2.3047969178    0.9883527595    0.2640261772
H        0.9855729002    1.7748469038    1.1067090857
H       -4.7081641273   -2.6316735832    1.8736136879
H       -4.3019159114   -2.1187090413    3.5263915605
H       -4.4346906375   -3.8484781149    3.1245455939
H       -0.2066595226   -2.5567615131    1.2876398766
H       -1.4405577283   -2.5670343612    0.0204200523
H       -1.7114151925   -1.0886915128    2.6916678282
H       -2.9156865925   -1.1286212259    1.4120427913
H       -1.9080260140   -0.5416885118   -1.0753531980
H       -2.1363263712   -3.3483039704    3.1108711193
23   
torsion grid (-135,)
C        0.6059760992    1.5019014687   -0.9719407597
C       -0.5556993863    0.9856632356   -1.3902833394
C       -0.4368345526   -0.6837395599    0.3301118309
C        1.1777029773    1.0493790982    0.3518769349
C       -4.1038665303   -2.8891442288    2.6534329875
C       -1.0446230859   -1.9651455882    0.8463071515
C       -2.0469415037   -1.6987492298    1.9869096189
N        0.6824873567   -0.2652814447    0.7882947374
N       -1.2165532926    0.0134818443   -0.6115320608
N       -2.6569065546   -2.9484968790    2.4576346024
H        1.1327557279    2.2314226002   -1.5794666810
H       -1.0388338893    1.2557929313   -2.3241204935
H        2.2720958700    0.9993329799    0.3030916469
H        0.9495297409    1.7807983980    1.1446217147
H       -4.5945146566   -2.7093207904    1.6904099796
H       -4.4414320588   -2.1055502927    3.3551059552
H       -4.4589033208   -3.8557086228    3.0256636620
H       -0.2344501075   -2.5976828789    1.2142751979
H       -1.5625355954   -2.5132978315    0.0502573561
H       -1.5347881500   -1.1509759233    2.7899510913
H       -2.8382372050   -1.0350546107    1.6197165574
H       -1.9178715351   -0.5392204142   -1.0879102449
H       -2.2003178628   -3.2622664818    3.3084290680
23   
torsion grid (-120,)
C        0.5837432888    1.4737673860   -0.9935400432
C       -0.6133459563    0.9919556918   -1.3482425775
C       -0.4424401338   -0.6929603815    0.3528406266
C        1.2165995353    0.9967635114    0.2933558719
C       -4.0690961195   -2.9320801281    2.5252738768
C       -1.0537185562   -1.9620010046    0.8944068555
C       -1.9906258392   -1.6785804369    2.0863815294
N        0.7119122793   -0.3076664138    0.7492130800
N       -1.2551324077    0.0324594387   -0.5384511182
N       -2.6086616033   -2.9166872865    2.5833226251
H        1.0951086491    2.1930415833   -1.6259381657
H       -1.1409237201    1.2814261465   -2.2517613691
H        2.3048182864    0.9184805374    0.1828731283
H        1.0526389912    1.7281444918    1.1018808598
H       -4.3951286777   -2.8826104925    1.4800773122
H       -4.5556491040   -2.1026173090    3.0686298195
H       -4.4397061189   -3.8764800031    2.9370026083
H       -0.2459295260   -2.6173585300    1.2232027465
H       -1.6203464146   -2.4926937309    0.1189554351
H       -1.4044113984   -1.1867820647    2.8717728167
H       -2.7651561239   -0.9609906045    1.7856918079
H       -1.9975687476   -0.4972207757   -0.9771314116
H       -2.3036751986   -3.0988282173    3.5339423517
23   
torsion grid (-105,)
C        0.5678487768    1.4492966947   -1.0082969948
C       -0.6599047517    1.0084404864   -1.3070907712
C       -0.4611046979   -0.6933012764    0.3737927104
C        1.2464791724    0.9427973642    0.2436102857
C       -4.0051944606   -2.9745835806    2.3889377795
C       -1.0829935496   -1.9477345163    0.9371235462
C       -1.9505872086   -1.6445036203    2.1753569126
N        0.7227894541   -0.3482133819    0.7158157373
N       -1.2922870261    0.0638456494   -0.4727828574
N       -2.5788665614   -2.8673005563    2.6943950629
H        1.0708264394    2.1567157752   -1.6604932247
H       -1.2211848636    1.3214339330   -2.1819969722
H        2.3249972080    0.8306794973    0.0800874464
H        1.1453297228    1.6730237554    1.0633969517
H       -4.1450690875   -3.0631981927    1.3053488985
H       -4.6054423537   -2.1145556397    2.7352822601
H       -4.4093721192   -3.8846933639    2.8435618607
H       -0.2833224738   -2.6302580164    1.2263882802
H       -1.6978112027   -2.4534546615    0.1811545290
H       -1.2961497664   -1.2120636013    2.9395698038
H       -2.7013734689   -0.8764117294    1.9340560506
H       -2.0729796986   -0.4375272061   -0.8768338865
H       -2.4538522079   -2.9099840087    3.7012435386
23   
torsion grid (-90,)
C        0.5612452042    1.4176718519   -1.0239104780
C       -0.6978255503    1.0292426719   -1.2580238341
C       -0.4771457871   -0.6923349678    0.4002106613
C        1.2855070124    0.8749320067    0.1865585108
C       -3.9167707038   -3.0238356350    2.2611624039
C       -1.1173380575   -1.9281860582    0.9842679002
C       -1.9234456699   -1.5991742422    2.2558356054
N        0.7365412942   -0.3979861401    0.6787877443
N       -1.3212371341    0.1044291682   -0.3953749452
N       -2.5745334946   -2.7968842880    2.7971731325
H        1.0565571414    2.1091408620   -1.6986459219
H       -1.2927624487    1.3714082365   -2.0991195518
H        2.3483024072    0.7213243503   -0.0355049739
H        1.2577292371    1.6019922843    1.0148554794
H       -3.8570512028   -3.2555774181    1.1920051920
H       -4.5967685971   -2.1611133695    2.3804114908
H       -4.3661413128   -3.8909409760    2.7550849774
H       -0.3295614958   -2.6370798570    1.2406656439
H       -1.7728964374   -2.4070166721    0.2453646265
H       -1.2207578819   -1.2138383185    3.0012856366
H       -2.6459849233   -0.7910241984    2.0473592302
H       -2.1450535397   -0.3593250014   -0.7562793004
H       -2.6378116105   -2.7085593911    3.8077292188
23   
torsion grid (-75,)
C        0.5934714295    1.3940174955   -1.0231428054
C       -0.7010320578    1.1019137661   -1.1959868174
C       -0.5161665815   -0.6704298166    0.4125848043
C        1.3392718056    0.7740866862    0.1361491902
C       -3.8028075067   -3.1524181428    2.1868468327
C       -1.2098933200   -1.8777763759    0.9960063875
C       -1.9715785445   -1.5188352087    2.2847308861
N        0.7285651084   -0.4697985890    0.6298729270
N       -1.3418491543    0.2038156903   -0.3180463747
N       -2.6031933243   -2.6949530682    2.8882060730
H        1.1013466241    2.0632376671   -1.7107974943
H       -1.3137020681    1.5044279286   -1.9966594379
H        2.3760152643    0.5532789673   -0.1444094689
H        1.4042127276    1.4809814171    0.9796521018
H       -3.5316311903   -3.6107220659    1.2305394741
H       -4.5332675581   -2.3476366428    1.9824589422
H       -4.2988493394   -3.9232469890    2.7842204044
H       -0.4530088880   -2.6280579294    1.2287338510
H       -1.8991827255   -2.3084975650    0.2591041468
H       -1.2500674834   -1.1144857575    3.0013714102
H       -2.7022527343   -0.7172588372    2.0674437793
H       -2.2180841229   -0.1880477181   -0.6382728998
H       -2.8466168486   -2.4722234392    3.8498702907
23   
torsion grid (-60,)
C        0.6403656655    1.3764496462   -1.0154100092
C       -0.6879771940    1.2230224669   -1.0684097415
C       -0.5375830388   -0.6243535983    0.4560865295
C        1.4199191439    0.6418055863    0.0508728622
C       -3.6189999156   -3.3176228257    2.1520554506
C       -1.2958686513   -1.7933770872    1.0374124348
C       -2.0895619195   -1.3887665398    2.2915520299
N        0.7360971903   -0.5592880815    0.5556882060
N       -1.3327613691    0.3622260589   -0.1562802092
N       -2.6819770179   -2.5457358919    2.9667439840
H        1.1491058837    2.0150267373   -1.7309660095
H       -1.3287566412    1.7144736269   -1.7938646399
H        2.4021942131    0.3366184846   -0.3284819382
H        1.6246012574    1.3037049353    0.9083318709
H       -3.0799437057   -3.8853388958    1.3880727019
H       -4.3856800600   -2.7035102659    1.6421715754
H       -4.1336299858   -4.0424002433    2.7899366737
H       -0.5691815189   -2.5629298215    1.3037107563
H       -1.9704032099   -2.2080832100    0.2783430629
H       -1.4050669190   -0.9014517540    2.9935371734
H       -2.8514107576   -0.6383420540    2.0047719304
H       -2.2737524770    0.0778822486   -0.3968108028
H       -3.1510618360   -2.2235589129    3.8091749384
23   
torsion grid (-45,)
C        0.6566853938    1.3563908762   -1.0049960840
C       -0.6787096199    1.2708208414   -1.0226861204
C       -0.5806478240   -0.6080572410    0.4659127233
C        1.4258871988    0.5660570153    0.0284918984
C       -3.5030170529   -3.3966890297    2.1565635139
C       -1.3788063140   -1.7522622537    1.0444630707
C       -2.1253093543   -1.3304458275    2.3205132239
N        0.6968370591   -0.6096799969    0.5297882666
N       -1.3412072632    0.4284734958   -0.1060038297
N       -2.7672255526   -2.4603103894    3.0025040292
H        1.1776811618    1.9797087272   -1.7251567586
H       -1.3134238275    1.8055433429   -1.7223628998
H        2.3825098545    0.2208181379   -0.3807133236
H        1.6830899318    1.2015460140    0.8917253065
H       -2.8109704147   -3.9783197983    1.5414927920
H       -4.2443960990   -2.9258595063    1.4828420297
H       -4.0362883831   -4.1039591401    2.7990049811
H       -0.6758568073   -2.5549895468    1.2760297661
H       -2.0877069822   -2.1230684560    0.2948031187
H       -1.4103251051   -0.8735193845    3.0128887475
H       -2.8556805208   -0.5454654930    2.0462165232
H       -2.3026372095    0.1981526542   -0.3222307211
H       -3.3725000024   -2.1035052852    3.7360772213
23   
torsion grid (-30,)
C        0.5827984683    1.3648749422   -1.0205985646
C       -0.7544717579    1.3150140132   -1.0108964128
C       -0.6749147852   -0.5832991012    0.4537610882
C        1.3521255233    0.5434906729   -0.0118558941
C       -3.4641840411   -3.4510745804    2.1850433105
C       -1.4906146882   -1.7143568227    1.0351388615
C       -2.1856793358   -1.2888861231    2.3384930725
N        0.6031150553   -0.6197160566    0.4892238248
N       -1.4192789973    0.4803847591   -0.0887368417
N       -2.9057680556   -2.3836176189    3.0096987566
H        1.1049925829    1.9816277342   -1.7454762380
H       -1.3894282414    1.8738170182   -1.6912615619
H        2.2918034564    0.1796861521   -0.4434750361
H        1.6411661646    1.1615841531    0.8538915579
H       -2.6642711926   -4.0193935360    1.7034527192
H       -4.1677044848   -3.1203486591    1.3976281989
H       -4.0017890155   -4.1449710145    2.8388778896
H       -0.8004247513   -2.5381400524    1.2260724188
H       -2.2321102484   -2.0515469680    0.3013320860
H       -1.4278497043   -0.8943568845    3.0247750896
H       -2.8635247987   -0.4503057972    2.0992047979
H       -2.3909325291    0.2783351666   -0.2869622281
H       -3.6216525871   -1.9964042562    3.6156651839
23   
torsion grid (-15,)
C        0.6356705633    1.3586611042   -1.0236293696
C       -0.7022863686    1.3323528511   -1.0289500603
C       -0.6723091126   -0.5864027171    0.4108268402
C        1.3809470541    0.5070947716   -0.0219655658
C       -3.3800730804   -3.4902435475    2.2149614795
C       -1.5134345387   -1.7028837727    0.9835303432
C       -2.1254511881   -1.2909512113    2.3348018296
N        0.6043577559   -0.6461856432    0.4592635217
N       -1.3928475218    0.4957589737   -0.1277122732
N       -2.9412721558   -2.3330617769    2.9903046644
H        1.1760557506    1.9787674403   -1.7321453607
H       -1.3193394080    1.9137794583   -1.7068150286
H        2.3150422910    0.1289223624   -0.4535428160
H        1.6787471465    1.1067067360    0.8537261735
H       -2.5191337318   -4.0716251426    1.8745040868
H       -4.0062324928   -3.2635248243    1.3326669559
H       -3.9630336381   -4.1411197103    2.8745052111
H       -0.8531788932   -2.5620627061    1.1107935684
H       -2.3021212281   -1.9797340318    0.2740024670
H       -1.3018752035   -1.0074443169    3.0013043401
H       -2.7227103865   -0.3804571209    2.1725706316
H       -2.3636114348    0.3093033898   -0.3448118690
H       -3.7377385507   -1.9026187064    3.4469724598
23   
torsion grid (0,)
C        0.8724783605    1.3146104556   -0.8743208157
C        0.1488393085    0.3620096130   -1.4739986167
C       -0.6286773371   -0.3968892245    0.6653820638
C        0.6421827199    1.5991394375    0.5919518716
C       -3.0371367883   -3.3663421110    2.7840397603
C       -1.3538567879   -1.5069959692    1.3878081531
C       -2.8545430671   -1.1740540308    1.5238347827
N        0.0426590326    0.4714818997    1.3219740271
N       -0.7947287124   -0.3784805882   -0.7320273691
N       -3.6793056373   -2.1645781840    2.2522288046
H        1.6176985886    1.8717117683   -1.4337308659
H        0.2441229720    0.0959994026   -2.5220842181
H        1.5844109838    1.8599864656    1.0882606661
H       -0.0138009732    2.4755833165    0.7203611455
H       -2.3102435522   -3.1005561183    3.5573114267
H       -2.5240264948   -4.0003174064    2.0407858219
H       -3.8061364915   -3.9770991508    3.2677956966
H       -0.8940911124   -1.5997090322    2.3721197155
H       -1.2153901697   -2.4563820934    0.8557047755
H       -2.9180559131   -0.2069721755    2.0384758426
H       -3.2739926898   -1.0181511584    0.5220943104
H       -1.1039225618   -1.2488984273   -1.1456411114
H       -4.4547653815   -2.4461770795    1.6620895858
23   
torsion grid (15,)
C        0.8705984426    1.3396276635   -0.8430040159
C        0.1328679019    0.4253518822   -1.4837189307
C       -0.6318905622   -0.4357257108    0.6215654214
C        0.6574620418    1.5502987749    0.6382245840
C       -3.0389196032   -3.2791489470    2.9030391178
C       -1.3679680103   -1.5685876994    1.2938648418
C       -2.8579706251   -1.2030776879    1.4905574586
N        0.0531443519    0.3925333223    1.3152843185
N       -0.8102863902   -0.3445425322   -0.7715867922
N       -3.7079395525   -2.1990634389    2.1752349144
H        1.6153229899    1.9184589515   -1.3806064890
H        0.2159214829    0.2130322483   -2.5450307561
H        1.6072722509    1.7757859151    1.1374784929
H        0.0121675135    2.4255965598    0.8181737074
H       -2.4743196267   -2.8713688875    3.7482665228
H       -2.3495611539   -3.8951998352    2.3030946152
H       -3.8063832442   -3.9395242553    3.3190196111
H       -0.8893102583   -1.7353396162    2.2589565380
H       -1.2704663091   -2.4887665113    0.7020693982
H       -2.8700798106   -0.2717458311    2.0714038550
H       -3.3124009312   -0.9664165902    0.5228635973
H       -1.1284376578   -1.1911617031   -1.2257943194
H       -4.3259211994   -2.6228546477    1.4895459537
23   
torsion grid (30,)
C        0.8539454979    1.3562477779   -0.8256716959
C        0.1060583098    0.4692880445   -1.4924977122
C       -0.6408076734   -0.4670936033    0.5869658114
C        0.6572262173    1.5120994981    0.6645764384
C       -3.0660453247   -3.2045049589    2.9950679314
C       -1.3805107643   -1.6156609685    1.2260975599
C       -2.8603266608   -1.2337940136    1.4799619986
N        0.0546555926    0.3323487239    1.3041652077
N       -0.8327345599   -0.3235280664   -0.8000085952
N       -3.7221542820   -2.2554620626    2.0936793420
H        1.5954063207    1.9520770539   -1.3490424201
H        0.1774742353    0.2966086278   -2.5618207526
H        1.6133192101    1.7146736167    1.1617201944
H        0.0180760270    2.3829370286    0.8839070706
H       -2.6372021042   -2.6673961114    3.8485259066
H       -2.2629682896   -3.8047404184    2.5380898459
H       -3.8216630292   -3.8913934733    3.3892022249
H       -0.8816193810   -1.8364473151    2.1699298208
H       -1.3207440558   -2.5117695330    0.5921806444
H       -2.8438446064   -0.3535991149    2.1354777796
H       -3.3333103545   -0.9136901499    0.5463342576
H       -1.1580542883   -1.1517825790   -1.2820842787
H       -4.1763061326   -2.7866826515    1.3546641549
23   
torsion grid (45,)
C        0.8364991291    1.3786877703   -0.8079101324
C        0.0702383326    0.5260231805   -1.4981959956
C       -0.6458036345   -0.4951477232    0.5521057213
C        0.6674680736    1.4710960601    0.6910105001
C       -3.1128159680   -3.1286326538    3.0905148380
C       -1.3854767126   -1.6630183542    1.1548736662
C       -2.8576476060   -1.2840047396    1.4600628942
N        0.0683632452    0.2684534223    1.2901049829
N       -0.8611362541   -0.2903916176   -0.8234555646
N       -3.7113654048   -2.3368859744    2.0146400957
H        1.5726694347    1.9918090373   -1.3186469144
H        0.1211335719    0.3990909588   -2.5750680556
H        1.6337480173    1.6461416245    1.1788646131
H        0.0385287983    2.3357400487    0.9591193875
H       -2.8282513327   -2.4626541201    3.9129479801
H       -2.2199081422   -3.7070350097    2.8033236360
H       -3.8616039119   -3.8277684921    3.4762110914
H       -0.8667203492   -1.9336971313    2.0749877104
H       -1.3566483233   -2.5310906965    0.4805519552
H       -2.8358231491   -0.4492254414    2.1712436217
H       -3.3426124327   -0.9079534576    0.5531807366
H       -1.2029059475   -1.0937944642   -1.3351683024
H       -3.9978343369   -2.9644271154    1.2660960125
23   
torsion grid (60,)
C        0.8665654920    1.4133811230   -0.8004058564
C        0.0641254733    0.6188589866   -1.5184300124
C       -0.6074146103   -0.5173361745    0.4859127617
C        0.7431755259    1.4153835797    0.7058811267
C       -3.1476635817   -3.0321789540    3.1622108028
C       -1.3483268589   -1.7095583775    1.0371271842
C       -2.8121659610   -1.3437666695    1.3964880088
N        0.1428735286    0.1863512248    1.2474970351
N       -0.8614501670   -0.2219548283   -0.8661653883
N       -3.6394257248   -2.4257669503    1.9244286893
H        1.5992714208    2.0439997396   -1.2945100399
H        0.0805278367    0.5580829606   -2.6021245465
H        1.7259315638    1.5463083120    1.1742129970
H        0.1360486061    2.2705952646    1.0452522370
H       -3.0651954739   -2.2559947979    3.9309693427
H       -2.1673218597   -3.5303283766    3.0830684165
H       -3.8755909729   -3.7704403510    3.5134685822
H       -0.8121444318   -2.0399769125    1.9277074792
H       -1.3471202927   -2.5371768904    0.3133709233
H       -2.7882870482   -0.5391444545    2.1402362785
H       -3.3158567347   -0.9377767042    0.5120012803
H       -1.2372188002   -0.9838191502   -1.4160835011
H       -3.7581927784   -3.1457858224    1.2145325489
23   
torsion grid (75,)
C        0.8832754401    1.4269771756   -0.7728960262
C        0.0140076684    0.7181893350   -1.5028296194
C       -0.5829135689   -0.5562815288    0.4406116501
C        0.8406292604    1.3123995399    0.7336030191
C       -3.2201662509   -2.8995260337    3.2498260575
C       -1.3246653267   -1.7745640939    0.9317481628
C       -2.7901735862   -1.4446189842    1.3117520988
N        0.2334289110    0.0597858901    1.2102269389
N       -0.9032244640   -0.1423968047   -0.8650017697
N       -3.5564731875   -2.5583305707    1.8668847560
H        1.6108600382    2.0708187905   -1.2573804123
H       -0.0317328259    0.7429916531   -2.5870770050
H        1.8502818145    1.3803498434    1.1555812912
H        0.2780313581    2.1532201524    1.1715218741
H       -3.4449209045   -2.0423459498    3.8932679949
H       -2.1668027800   -3.1801395621    3.4198796924
H       -3.8498416564   -3.7327753367    3.5774141493
H       -0.7852764901   -2.1519637009    1.8021704550
H       -1.3233721700   -2.5613306862    0.1639994109
H       -2.7927290076   -0.6303276533    2.0436180861
H       -3.3180111462   -1.0703899204    0.4260421200
H       -1.3436929546   -0.8406528216   -1.4501930811
H       -3.4616250551   -3.3781867723    1.2714593730
23   
torsion grid (90,)
C        0.8874909213    1.4661505458   -0.7756056135
C       -0.0253653145    0.8044158770   -1.4964974628
C       -0.5465846443   -0.5566939340    0.4095064102
C        0.9151505838    1.2783645912    0.7239512814
C       -3.3244344898   -2.8266600445    3.2794938345
C       -1.2762488781   -1.7934839828    0.8729558465
C       -2.7312572411   -1.4904859369    1.3008669289
N        0.3137729387    0.0110740228    1.1682060751
N       -0.9221587783   -0.0761695558   -0.8573417246
N       -3.4516354526   -2.6495316443    1.8323757921
H        1.5998948208    2.1247735565   -1.2627351383
H       -0.1227055969    0.8832090749   -2.5747338371
H        1.9445901003    1.3136388225    1.0995541315
H        0.3859579454    2.1032327595    1.2287749951
H       -3.8254822717   -1.9978309366    3.7904848468
H       -2.2851907456   -2.8732871573    3.6497998246
H       -3.8317777648   -3.7503652147    3.5754053062
H       -0.7180328186   -2.2038901265    1.7170615383
H       -1.2906301440   -2.5496195686    0.0750568782
H       -2.7249581119   -0.7043964873    2.0621162033
H       -3.2837279854   -1.0881203234    0.4420076226
H       -1.4055009775   -0.7362915807   -1.4527623938
H       -3.1617843305   -3.4955539221    1.3482601345
23   
torsion grid (105,)
C        0.8412082779    1.4408666487   -0.8296701408
C       -0.1399924553    0.8197366860   -1.4947897279
C       -0.5351632444   -0.5922971694    0.4034817670
C        0.9785177804    1.2081582135    0.6574851833
C       -3.4957514211   -2.8401960364    3.2921188043
C       -1.2367818582   -1.8427554046    0.8748411251
C       -2.6815070386   -1.5712598563    1.3429689589
N        0.3945971792   -0.0654519131    1.1076817104
N       -1.0031778953   -0.0611678761   -0.8111508316
N       -3.3638394029   -2.7756349194    1.8359971069
H        1.5295636963    2.0977714367   -1.3522959902
H       -0.3194790892    0.9316913431   -2.5594429539
H        2.0332287826    1.2204936754    0.9561476399
H        0.4986877642    2.0229208506    1.2242289498
H       -4.1779467696   -2.0541471460    3.6325284289
H       -2.5451061497   -2.7254846423    3.8426627400
H       -3.9383639555   -3.8016052850    3.5718093931
H       -0.6509495277   -2.2523253215    1.7007363689
H       -1.2571471556   -2.5902931548    0.0685617692
H       -2.6578838295   -0.8172715111    2.1367696198
H       -3.2581604837   -1.1348493721    0.5167546829
H       -1.5512982351   -0.6895639840   -1.3845270352
H       -2.8872599097   -3.6070284308    1.4972831504
23   
torsion grid (120,)
C        0.8234296775    1.4581257952   -0.8690389173
C       -0.1978504461    0.8578523441   -1.4916189794
C       -0.4995881341   -0.5899331735    0.3961006727
C        1.0392832264    1.1944672395    0.6035467252
C       -3.6499614688   -2.8447930201    3.2502947804
C       -1.1774453316   -1.8509895255    0.8746921398
C       -2.5986612439   -1.5940835695    1.4066458322
N        0.4713689383   -0.0845910704    1.0589538406
N       -1.0297056265   -0.0304178934   -0.7793237070
N       -3.2628633708   -2.8358725601    1.8383862782
H        1.4879397827    2.1202674082   -1.4153502059
H       -0.4343232479    0.9925552393   -2.5423974726
H        2.1085784796    1.1943125424    0.8450218766
H        0.5963017791    2.0001212676    1.2117442434
H       -4.4424966304   -2.1079576454    3.4193718795
H       -2.8233160783   -2.6174382834    3.9464461003
H       -4.0570007539   -3.8280551022    3.5072125623
H       -0.5559366679   -2.2719122189    1.6682066108
H       -1.2277391514   -2.5835564246    0.0558668061
H       -2.5251849338   -0.8905177177    2.2456830541
H       -3.2040449829   -1.0997264232    0.6358648161
H       -1.6146175603   -0.6425339747   -1.3337547865
H       -2.6478541471   -3.6256897995    1.6615791817
23   
torsion grid (135,)
C        0.8246674582    1.4838608624   -0.8994600758
C       -0.2332323511    0.9046665617   -1.4793966643
C       -0.4477138668   -0.5798108102    0.3912958377
C        1.1148494988    1.1881611568    0.5541029780
C       -3.7828375638   -2.8103489616    3.1797677806
C       -1.1069509478   -1.8487951127    0.8744345485
C       -2.5005835257   -1.5999670414    1.4722701046
N        0.5611147394   -0.0962012996    1.0122226009
N       -1.0347631942    0.0087510900   -0.7422522969
N       -3.1489382247   -2.8636013901    1.8605891081
H        1.4657666898    2.1515973175   -1.4665184135
H       -0.5231596743    1.0626050187   -2.5134107930
H        2.1951851704    1.1756533124    0.7394979936
H        0.7102796027    1.9837445723    1.2010573052
H       -4.6296932649   -2.1157361562    3.1537792577
H       -3.1052331335   -2.4838030118    3.9881404648
H       -4.1772756356   -3.7994571304    3.4335643468
H       -0.4517909464   -2.2839004930    1.6325764319
H       -1.1942198620   -2.5664909080    0.0459761532
H       -2.3764001400   -0.9335410344    2.3394757475
H       -3.1380162339   -1.0675398645    0.7552111215
H       -1.6516839997   -0.5886278043   -1.2779321851
H       -2.4453058300   -3.5982187858    1.8785543154
23   
torsion grid (150,)
C        0.7911271323    1.5054399075   -0.9163700865
C       -0.2970499875    0.9433912450   -1.4557445957
C       -0.4177844590   -0.5909782907    0.3831809890
C        1.1563760356    1.1698051172    0.5113224315
C       -3.8885366854   -2.7984658724    3.1039906970
C       -1.0557670304   -1.8717008585    0.8635526092
C       -2.4118983474   -1.6340879025    1.5435775599
N        0.6234258666   -0.1255914097    0.9631700492
N       -1.0615702767    0.0289993603   -0.7021130560
N       -3.0370874326   -2.9096053976    1.9172078861
H        1.4034388403    2.1875769901   -1.4979145501
H       -0.6399135948    1.1294643776   -2.4686788652
H        2.2449356296    1.1504832150    0.6391359908
H        0.7888963439    1.9481570796    1.2000317074
H       -4.7561429111   -2.1690476798    2.8759563663
H       -3.3768679026   -2.3598760341    3.9785507427
H       -4.2632778024   -3.7895883214    3.3782434440
H       -0.3617606725   -2.3295863892    1.5724132879
H       -1.1925328763   -2.5668752946    0.0236092308
H       -2.2389175942   -0.9871886495    2.4206129009
H       -3.0907952733   -1.0865636470    0.8780852780
H       -1.7045276079   -0.5549736880   -1.2218358536
H       -2.2974342022   -3.5780556189    2.1254777048
23   
torsion grid (165,)
C        0.7822759566    1.5339052399   -0.9300287972
C       -0.3266155303    0.9840942698   -1.4389691399
C       -0.3764284674   -0.5921857058    0.3680467503
C        1.2048366027    1.1643946403    0.4732555419
C       -3.9555360137   -2.7667919519    3.0142310269
C       -0.9997899668   -1.8807541450    0.8465449329
C       -2.3128898770   -1.6476778810    1.6072277230
N        0.6869649807   -0.1397469932    0.9172059176
N       -1.0613699127    0.0516262673   -0.6778752119
N       -2.9099921555   -2.9258394570    2.0016984661
H        1.3703623771    2.2311005048   -1.5187133264
H       -0.7092659510    1.1941891276   -2.4327932855
H        2.2977244464    1.1396370553    0.5554771065
H        0.8687619293    1.9275879870    1.1942245115
H       -4.8015869361   -2.2201384642    2.5824888783
H       -3.6257361803   -2.2175577865    3.9137165885
H       -4.3205026951   -3.7518055932    3.3213906534
H       -0.2715177798   -2.3643529156    1.5021865660
H       -1.1933899906   -2.5531110957    0.0003447061
H       -2.1011377565   -0.9939558840    2.4724326463
H       -3.0334016426   -1.1111476792    0.9774976998
H       -1.7204384909   -0.5233534117   -1.1873956128
H       -2.1752270576   -3.5145189613    2.3914406155
23   
torsion grid (180,)
C        0.7475421606    1.5567226717   -0.9413119931
C       -0.3843859359    1.0199153912   -1.4119130284
C       -0.3587959796   -0.5944148131    0.3623376938
C        1.2324214842    1.1555448849    0.4327132478
C       -4.0129577448   -2.7647612396    2.9234213532
C       -0.9695324064   -1.8874450676    0.8451698382
C       -2.2270629423   -1.6544199873    1.6955768061
N        0.7292517803   -0.1554414776    0.8727914029
N       -1.0876856847    0.0728096575   -0.6390764412
N       -2.8086801174   -2.9320788197    2.1082468301
H        1.3108462142    2.2650380000   -1.5408974823
H       -0.8101871645    1.2524396001   -2.3829593225
H        2.3278881196    1.1247706587    0.4634836788
H        0.9343208494    1.9046918652    1.1844919077
H       -4.8052533125   -2.3182475321    2.3122511913
H       -3.8702086555   -2.1222748690    3.8103726157
H       -4.3657540231   -3.7447699261    3.2593126681
H       -0.2076695066   -2.3998413482    1.4378238761
H       -1.2323369180   -2.5356413061   -0.0001406654
H       -1.9696726993   -1.0008474968    2.5481490103
H       -2.9825826176   -1.1180079903    1.1084022945
H       -1.7654393747   -0.4933413911   -1.1338647710
H       -2.1133913618   -3.4468731237    2.6463968180
