19   
torsion grid (-165,)
C        1.9480101941    0.1314772857   -1.6602480117
C       -0.1335726207    0.3160807382    1.4808503823
C       -0.4474923710    1.3987969358    0.4597844282
C        0.1133384870    0.0719431861    0.0112535631
C        3.4105949565   -0.2234670779   -1.8863008313
C       -0.7853106681   -0.9086375223   -0.7213145844
N        1.5159826622    0.0400092179   -0.3580259709
O        1.2196653273    0.4884821038   -2.5829573221
H        0.7251087782    0.4757561205    2.1281155390
H       -0.9580806294   -0.2163904045    1.9453530229
H       -1.4873457117    1.6093896565    0.2289437321
H        0.2164579913    2.2554729196    0.4145532532
H        3.4618511403   -1.1691128162   -2.4351126826
H        3.8637604851    0.5463681072   -2.5146583150
H        3.9885183536   -0.3207106662   -0.9624989118
H       -0.7951800272   -0.6939102315   -1.7916764916
H       -1.8093977071   -0.8395246272   -0.3416771017
H       -0.4363856691   -1.9370130122   -0.5701577515
H        2.1356693854   -0.4278774797    0.2916995978
19   
torsion grid (-150,)
C        1.9514562991    0.1868039065   -1.6148178748
C       -0.1368670862    0.3678101702    1.4737111805
C       -0.3933330585    1.3831149981    0.3745925750
C        0.1120620901    0.0056062199    0.0268424205
C        3.4071068488   -0.1624241673   -1.8873288266
C       -0.8139127374   -0.9773427599   -0.6656495894
N        1.5070452620   -0.0925330317   -0.3448865043
O        1.2326964661    0.6912842659   -2.4742183238
H        0.7245819572    0.5313121665    2.1156624286
H       -0.9887151052   -0.0935822663    1.9647329468
H       -1.4204116787    1.6189895830    0.1139727460
H        0.3062637453    2.2052783877    0.2711234057
H        3.4428988296   -1.0161692574   -2.5712308084
H        3.8804859650    0.6829029056   -2.3916479137
H        3.9762841370   -0.4087348363   -0.9860287671
H       -0.7869285196   -0.8210018668   -1.7470725497
H       -1.8446030513   -0.8433150924   -0.3229929040
H       -0.5159280630   -2.0100556469   -0.4491647344
H        2.1060100565   -0.6508112447    0.2503266371
19   
torsion grid (-135,)
C        1.9547775709    0.2085195810   -1.5952323836
C       -0.1060013760    0.4397958767    1.4415557522
C       -0.3525211785    1.3636097916    0.2660446313
C        0.0980696495   -0.0545192685    0.0240718405
C        3.4187852157   -0.1066123497   -1.8657316303
C       -0.8728260302   -1.0530586152   -0.5774094926
N        1.4737680074   -0.2237290491   -0.3840769254
O        1.2662757523    0.8252003529   -2.4048241789
H        0.7767150142    0.6212490497    2.0485432903
H       -0.9613344096    0.0521495552    1.9877617334
H       -1.3769874690    1.6096832564    0.0048973080
H        0.3674601733    2.1508757492    0.0739254826
H        3.4941802602   -0.6292708501   -2.8226382188
H        3.9655605854    0.8356260528   -1.9627536227
H        3.8937896103   -0.7115847030   -1.0876654467
H       -0.8652677997   -0.9694538438   -1.6681579581
H       -1.8922831242   -0.8666260621   -0.2255001664
H       -0.6007313096   -2.0786597815   -0.3014576050
H        2.0647632145   -0.8160623088    0.1845731345
19   
torsion grid (-120,)
C        1.9798786236    0.2756183301   -1.5721919334
C       -0.0655957706    0.4789472400    1.3986314637
C       -0.3434297280    1.3392880552    0.1858045263
C        0.0780295792   -0.0960625402    0.0002237329
C        3.4407237732   -0.0677807168   -1.8293282947
C       -0.9319478868   -1.1072996202   -0.5080342939
N        1.4291553235   -0.3153367442   -0.4616202726
O        1.3584463012    1.0348540902   -2.3116444065
H        0.8445069390    0.6760107351    1.9582193824
H       -0.9028824427    0.1332901983    1.9987742358
H       -1.3741883113    1.5831048465   -0.0521670066
H        0.3740005389    2.1068009664   -0.0779327377
H        3.5397196841   -0.4282366958   -2.8561978749
H        4.0339539047    0.8472827860   -1.7443144332
H        3.8487439279   -0.8177266801   -1.1450745593
H       -0.9766869186   -1.0748825700   -1.6012148538
H       -1.9314326076   -0.8930441991   -0.1168568382
H       -0.6594301249   -2.1241761801   -0.2014408782
H        2.0046275519   -0.9535188674    0.0722905858
19   
torsion grid (-105,)
C        2.0180226825    0.3507103812   -1.5468472491
C       -0.0189007446    0.5172812784    1.3460260975
C       -0.3710428171    1.3230872648    0.1167525640
C        0.0541898605   -0.1149778284   -0.0366150417
C        3.4665988908   -0.0545668693   -1.7888882428
C       -0.9761888424   -1.1531936132   -0.4382160829
N        1.3761492308   -0.3669655963   -0.5663123680
O        1.4915788122    1.2508485683   -2.1965267962
H        0.9210726814    0.7425860651    1.8417272204
H       -0.8164377177    0.1903636905    2.0079786790
H       -1.4174572482    1.5420405425   -0.0737556498
H        0.3167847040    2.0891559921   -0.2168892824
H        3.6015248592   -0.2436613723   -2.8565317470
H        4.1130407689    0.7861475896   -1.5203098798
H        3.7837460557   -0.9373457387   -1.2256158400
H       -1.0949203860   -1.1667867752   -1.5265266283
H       -1.9492338006   -0.9328029418    0.0116115458
H       -0.6745554715   -2.1560352580   -0.1122617909
H        1.9222208389   -1.0687529455   -0.0828739636
19   
torsion grid (-90,)
C        2.0777739389    0.4352900919   -1.4871348547
C        0.0038842781    0.5722143595    1.2925428056
C       -0.4408945730    1.3168075947    0.0532269391
C        0.0357219555   -0.1077308747   -0.0702037627
C        3.4858763425   -0.0772922063   -1.7665280264
C       -0.9764644885   -1.1963541890   -0.3722581815
N        1.3329307524   -0.3692589023   -0.6588689271
O        1.6779957953    1.4837520243   -1.9885889585
H        0.9592610333    0.8541215188    1.7256278875
H       -0.7435553698    0.2411918184    2.0087943481
H       -1.5052083932    1.4791390667   -0.0918713921
H        0.1964711959    2.0980935596   -0.3380546474
H        3.6457597538   -0.0783500849   -2.8472977641
H        4.2043137036    0.6224342379   -1.3291950956
H        3.6848853160   -1.0789225815   -1.3737467228
H       -1.1580693801   -1.2607710748   -1.4501983822
H       -1.9285204709   -0.9916412406    0.1266365967
H       -0.6226590783   -2.1753513396   -0.0250893913
H        1.8166900456   -1.1702393442   -0.2718669264
19   
torsion grid (-75,)
C        2.1521084287    0.5041869239   -1.3794144505
C        0.0011368073    0.6397793059    1.2435043986
C       -0.5218075224    1.3110123332   -0.0121885625
C        0.0267578410   -0.0906507086   -0.0901963356
C        3.4898388728   -0.1115011623   -1.7744455119
C       -0.9437759559   -1.2354494190   -0.3098862389
N        1.3077802420   -0.3520725650   -0.7181313030
O        1.8947829912    1.6746695176   -1.6562860884
H        0.9529357066    0.9945090381    1.6278055721
H       -0.7037674543    0.3026836388    1.9989128371
H       -1.5980698858    1.4073381437   -0.1278792419
H        0.0671782050    2.1091718788   -0.4421966746
H        3.6596604779    0.0850234393   -2.8356970940
H        4.2844333576    0.3923572498   -1.2161615829
H        3.5593170652   -1.1885017370   -1.5944035255
H       -1.1599437242   -1.3587290846   -1.3764733203
H       -1.8856145205   -1.0491217612    0.2138784386
H       -0.5374394641   -2.1820365512    0.0700294242
H        1.7006808888   -1.2555360467   -0.4848451966
19   
torsion grid (-60,)
C        2.2284738855    0.5263867208   -1.2283287838
C       -0.0095841587    0.7109732174    1.1901991792
C       -0.5824868060    1.2974506043   -0.0921712443
C        0.0251605439   -0.0825382719   -0.1005528884
C        3.4847541709   -0.1224579262   -1.7966329670
C       -0.9071505374   -1.2700325787   -0.2415932202
N        1.2972213740   -0.3541853631   -0.7475156953
O        2.1027135437    1.7509344361   -1.2144878558
H        0.9288358038    1.1353854261    1.5331596453
H       -0.6857182530    0.3835212766    1.9755227139
H       -1.6634491191    1.3433131840   -0.1973072604
H       -0.0269290885    2.1020462181   -0.5530702272
H        3.6499234757    0.2690663502   -2.8034375220
H        4.3403088157    0.1765498272   -1.1841493314
H        3.4446339285   -1.2149595482   -1.8407768886
H       -1.1346767086   -1.4641517707   -1.2957827678
H       -1.8480925184   -1.0834353370    0.2823914257
H       -0.4659285600   -2.1781173256    0.1904866515
H        1.5681825648   -1.3286167055   -0.7400274193
19   
torsion grid (-45,)
C        2.2933041016    0.4991779597   -1.0698891083
C       -0.0109790893    0.7731646774    1.1315164937
C       -0.6134570838    1.2781527519   -0.1753587217
C        0.0233000357   -0.0886452391   -0.1090253200
C        3.4806771538   -0.1079893263   -1.8049972732
C       -0.8845501961   -1.3009259117   -0.1656496845
N        1.2851445752   -0.3742602665   -0.7741764971
O        2.2743449220    1.6936635442   -0.7688902940
H        0.9151518553    1.2463120695    1.4373099372
H       -0.6731381362    0.4689929302    1.9380154798
H       -1.6957055192    1.3066089869   -0.2741106070
H       -0.0719938891    2.0705312789   -0.6750831740
H        3.6186301683    0.4310271849   -2.7461566483
H        4.3803076360    0.0474816303   -1.2033717189
H        3.3762025171   -1.1758437952   -2.0192095941
H       -1.1256432718   -1.5650092519   -1.2024844241
H       -1.8233738596   -1.0997633722    0.3558778368
H       -0.4178912691   -2.1694275777    0.3166174190
H        1.4158617061   -1.3361158396   -1.0550085572
19   
torsion grid (-30,)
C        2.3292987757    0.4715034498   -0.9902077653
C       -0.0047194193    0.8196799603    1.0846810360
C       -0.6532996813    1.2646903754   -0.2197078635
C        0.0152901609   -0.0874185568   -0.1230869010
C        3.4840941426   -0.1091158597   -1.7952530264
C       -0.8607489350   -1.3233955557   -0.1057966875
N        1.2494973772   -0.3528326483   -0.8464535182
O        2.3896619053    1.6084674092   -0.5194174211
H        0.9126952234    1.3250310919    1.3573876096
H       -0.6441751859    0.5193423568    1.9109738014
H       -1.7377449341    1.2829478467   -0.2922103832
H       -0.1330152457    2.0435556230   -0.7647771218
H        3.6721187502    0.5409522391   -2.6540655995
H        4.3824579519   -0.0971363756   -1.1722635290
H        3.3127274531   -1.1290652636   -2.1522637594
H       -1.1232027458   -1.6381224461   -1.1238455116
H       -1.7925068323   -1.1232254405    0.4285908638
H       -0.3576117619   -2.1573400602    0.3988244314
H        1.3053753577   -1.2613857118   -1.2851831105
19   
torsion grid (-15,)
C        2.5168505973   -0.6244317749   -0.1755939305
C       -0.0569047512    0.2904828474    1.3472149481
C       -0.1850277556    1.1950272469    0.1317190188
C       -0.0056425175   -0.3000779688   -0.0408561808
C        3.5825737130   -1.2969949464   -1.0320525373
C       -1.1879714443   -1.1223250754   -0.5126615570
N        1.2316330136   -0.8156895933   -0.6034136982
O        2.8283501165    0.0388057796    0.8140489876
H        0.8642292491    0.3556418308    1.9092350202
H       -0.9526851365    0.0753860330    1.9244497751
H       -1.1524468050    1.6262410947   -0.1120228620
H        0.6725277580    1.8223057557   -0.0896112389
H        4.2382092040   -0.5247907572   -1.4441926102
H        4.1925924376   -1.9342470196   -0.3866613186
H        3.1837622007   -1.9001960004   -1.8531638332
H       -1.2618285514   -1.1237348213   -1.6082841054
H       -2.1216514818   -0.7086723404   -0.1232288731
H       -1.1049704825   -2.1599332529   -0.1695960279
H        1.1195437310   -1.3155260789   -1.4752047912
19   
torsion grid (0,)
C        2.5020057877   -0.7817545398   -0.0820895073
C       -0.0397005027    0.3676674521    1.3065086139
C       -0.2143949822    1.2102018500    0.0551113493
C       -0.0059928717   -0.2912681310   -0.0483623341
C        3.5823481196   -1.2803800773   -1.0352955367
C       -1.1812164820   -1.1591914048   -0.4555779233
N        1.2348521897   -0.7949153005   -0.6068973947
O        2.7906872367   -0.4048585494    1.0528742637
H        0.8913152655    0.4592270747    1.8482907044
H       -0.9196619434    0.1653304033    1.9114425956
H       -1.1963370598    1.6096170281   -0.1844704614
H        0.6218055561    1.8428093025   -0.2275382194
H        4.2027550155   -0.4308277559   -1.3370844970
H        4.2235007996   -1.9798065322   -0.4943326067
H        3.1944334264   -1.7697058868   -1.9338258210
H       -1.2710983034   -1.2232937878   -1.5480851599
H       -2.1179860338   -0.7435732747   -0.0741070725
H       -1.0677481456   -2.1744005800   -0.0602881495
H        1.1715760225   -1.0436063319   -1.5861486581
19   
torsion grid (15,)
C        2.4589607288   -0.9195131142   -0.0507506428
C        0.0048076069    0.4377821374    1.2530958119
C       -0.2496904749    1.2187727730   -0.0232006481
C       -0.0083507713   -0.2818455056   -0.0685763072
C        3.5883528023   -1.2554798813   -1.0180078834
C       -1.1778076090   -1.1962972040   -0.3841883475
N        1.2305190397   -0.7628589857   -0.6457483724
O        2.6732909136   -0.8115617137    1.1548637524
H        0.9565226413    0.5641227571    1.7508436064
H       -0.8383150667    0.2449096766    1.9105045331
H       -1.2528736669    1.5805521808   -0.2324682493
H        0.5524367977    1.8594738341   -0.3778816087
H        4.2631404920   -0.3960245522   -1.0790286166
H        4.1581483881   -2.0921199734   -0.6077916053
H        3.2515306671   -1.5101447013   -2.0274310678
H       -1.3072818844   -1.3171741757   -1.4673195723
H       -2.1101748090   -0.7876991783    0.0166694155
H       -1.0178663688   -2.1870981298    0.0538592522
H        1.2257936681   -0.8105252852   -1.6573192649
19   
torsion grid (30,)
C        2.4069096850   -1.0174189492   -0.0567314919
C        0.0441466542    0.4985224312    1.2059619636
C       -0.3031544358    1.2337837947   -0.0749379779
C       -0.0060925745   -0.2564571228   -0.0941348070
C        3.5894065995   -1.2635210827   -0.9859890157
C       -1.1487323014   -1.2276039630   -0.3312519403
N        1.2368697336   -0.6857096726   -0.6970061217
O        2.5252377200   -1.1168937498    1.1622188174
H        1.0145347658    0.6706722773    1.6524083666
H       -0.7526516277    0.2937484568    1.9148086539
H       -1.3300231051    1.5471502680   -0.2429057558
H        0.4512843726    1.8980903855   -0.4864803373
H        4.3091782754   -0.4489285808   -0.8593731920
H        4.0833899318   -2.1890207467   -0.6821128081
H        3.3182827706   -1.3308968091   -2.0439360078
H       -1.3212481527   -1.3808616232   -1.4037233032
H       -2.0788341613   -0.8517676569    0.1061045877
H       -0.9220046192   -2.1983602676    0.1215699388
H        1.2846435639   -0.5972564303   -1.7043653842
19   
torsion grid (45,)
C        2.3564848906   -1.0783674552   -0.0833645170
C        0.0646406212    0.5721322385    1.1653178058
C       -0.3757947582    1.2492571706   -0.1188596735
C        0.0022144415   -0.2203749563   -0.1120301402
C        3.5818544932   -1.2924445536   -0.9620575174
C       -1.0849743952   -1.2674261884   -0.2745736895
N        1.2560286128   -0.5771730342   -0.7350493555
O        2.3759063292   -1.3420093390    1.1163949643
H        1.0444149130    0.8082643745    1.5611178902
H       -0.6856287228    0.3477305921    1.9171559639
H       -1.4254881416    1.4975113133   -0.2496634350
H        0.3189759215    1.9455459154   -0.5798948080
H        4.3916806760   -0.6579377352   -0.5909625509
H        3.9067448338   -2.3309914158   -0.8600766022
H        3.4160457111   -1.0720244071   -2.0208348112
H       -1.2918789396   -1.4588733197   -1.3343411352
H       -2.0173261181   -0.9414241680    0.1969389881
H       -0.7741251858   -2.2078109236    0.1917835490
H        1.3413679125   -0.3963131497   -1.7268767403
19   
torsion grid (60,)
C        2.3112973745   -1.1364058704   -0.1142799649
C        0.0553735114    0.6482015240    1.1457068901
C       -0.4395164680    1.2642829220   -0.1491856166
C        0.0189797915   -0.1792781709   -0.1117961338
C        3.5641435658   -1.3384966064   -0.9546710168
C       -1.0004373997   -1.2971774471   -0.2313940420
N        1.2910577927   -0.4594674030   -0.7356865052
O        2.2367295611   -1.5479156914    1.0410220222
H        1.0290730128    0.9472811620    1.5155361338
H       -0.6691619202    0.4068546345    1.9170636358
H       -1.5035257531    1.4488934577   -0.2677040778
H        0.2058933866    1.9881003912   -0.6389598372
H        4.4047921130   -0.8564964923   -0.4480022965
H        3.7827133284   -2.4083547946   -1.0060915263
H        3.4871383658   -0.9400192640   -1.9706990427
H       -1.2140782285   -1.5230783265   -1.2827933207
H       -1.9421008219   -1.0216773695    0.2536568745
H       -0.6185645467   -2.2029633974    0.2494933694
H        1.4013364292   -0.2150122992   -1.7110913601
19   
torsion grid (75,)
C        2.2839446745   -1.1894929281   -0.1422102726
C        0.0150551811    0.7316672459    1.1414404720
C       -0.4920045431    1.2664941104   -0.1834336422
C        0.0430039407   -0.1460624322   -0.0846391193
C        3.5436545792   -1.3861172957   -0.9726969749
C       -0.9102759001   -1.3221296621   -0.1835442091
N        1.3392533636   -0.3565208784   -0.6890695602
O        2.1380493690   -1.7319801453    0.9507318424
H        0.9679858142    1.0974843006    1.5072592829
H       -0.7070241753    0.4851623221    1.9136007886
H       -1.5627682188    1.3866696937   -0.3210564844
H        0.1176094483    2.0079694892   -0.6927682358
H        4.4072642869   -1.0888749062   -0.3719432839
H        3.6524959226   -2.4505064856   -1.1984581158
H        3.5503978568   -0.8202409397   -1.9090131247
H       -1.1053831166   -1.5786818678   -1.2314207127
H       -1.8674359193   -1.0868891307    0.2921454608
H       -0.4814966711   -2.1936602911    0.3188089241
H        1.4688172023   -0.0470192403   -1.6436088499
19   
torsion grid (90,)
C        2.2842198704   -1.2310118444   -0.1505864764
C       -0.0548167468    0.8211128988    1.1355713526
C       -0.5294843367    1.2483965417   -0.2381195218
C        0.0713230578   -0.1258420190   -0.0349866238
C        3.5251452703   -1.4185815621   -1.0110909143
C       -0.8243838803   -1.3476395493   -0.1154454406
N        1.3989030229   -0.2779553561   -0.5953824852
O        2.1008569072   -1.8837060406    0.8740038927
H        0.8620641077    1.2591268957    1.5149281246
H       -0.7982158990    0.5866285162    1.8914272226
H       -1.5980635983    1.3037557597   -0.4243471917
H        0.0613828119    1.9930970640   -0.7650577035
H        4.3987578468   -1.4686536473   -0.3576696891
H        3.4496096467   -2.3766784922   -1.5350894439
H        3.6717625779   -0.6244798225   -1.7492311394
H       -0.9640515586   -1.6569217146   -1.1580354984
H       -1.8095110224   -1.1273484134    0.3072315466
H       -0.3851754884   -2.1772614910    0.4433098287
H        1.5408205057    0.0812332351   -1.5313056543
19   
torsion grid (105,)
C        2.2766551117   -1.3017629421   -0.1791927691
C       -0.1214414721    0.8918182069    1.1318673633
C       -0.5334342044    1.2242241670   -0.2858666150
C        0.0948432330   -0.1182235556    0.0249153735
C        3.5100747462   -1.4317864478   -1.0619834376
C       -0.7738815588   -1.3598231992   -0.0453257721
N        1.4513216844   -0.2436049689   -0.4809277887
O        2.0575129672   -2.0840077840    0.7424938556
H        0.7620697711    1.3800595285    1.5295192654
H       -0.8973899627    0.6811847104    1.8620572133
H       -1.5912772940    1.2364414588   -0.5311822758
H        0.0616465605    1.9597487085   -0.8218107242
H        4.3758245912   -1.6274526130   -0.4258735281
H        3.3818017573   -2.2967721568   -1.7205778824
H        3.7064528156   -0.5484286654   -1.6768834416
H       -0.8415041479   -1.7233565882   -1.0774445001
H       -1.7862765033   -1.1267787985    0.2986922473
H       -0.3647058987   -2.1552816074    0.5796034580
H        1.6328508984    0.2210735056   -1.3619558564
19   
torsion grid (120,)
C        2.2568206436   -1.3873771271   -0.2370116216
C       -0.1705293972    0.9566394539    1.1059962130
C       -0.5261907729    1.1856615553   -0.3472128632
C        0.1080970502   -0.1228978189    0.0784033986
C        3.5083976201   -1.4147187259   -1.1050955423
C       -0.7529240528   -1.3710704638    0.0514849035
N        1.4874646921   -0.2557935159   -0.3701102557
O        1.9874766172   -2.3110551374    0.5271755459
H        0.6873784315    1.4879906986    1.5056025080
H       -0.9744526262    0.7860838821    1.8165657953
H       -1.5721997048    1.1649538579   -0.6382625734
H        0.0780153969    1.8972179790   -0.9059076019
H        4.3423139155   -1.7810149052   -0.5030256082
H        3.3530244791   -2.1255248979   -1.9231448226
H        3.7712831542   -0.4421829453   -1.5320742497
H       -0.7520937805   -1.8170755424   -0.9494194186
H       -1.7840252066   -1.1055928405    0.3046893950
H       -0.3925055429   -2.1179947355    0.7589633250
H        1.7457921783    0.3510221876   -1.1374923416
19   
torsion grid (135,)
C        2.2014313739   -1.4843420420   -0.3987508655
C       -0.1709165297    1.0034680878    1.0521779161
C       -0.5398732001    1.1304130951   -0.4148311899
C        0.0988693989   -0.1433311397    0.0985283428
C        3.5414126350   -1.3532652993   -1.1146303973
C       -0.7669237357   -1.3846900782    0.1799720353
N        1.4825955141   -0.3186772979   -0.3213695703
O        1.8370912597   -2.5619452515    0.0671420684
H        0.6850353614    1.5694566418    1.4083103524
H       -0.9695538595    0.8858005612    1.7794273760
H       -1.5886760670    1.0935343969   -0.6944200407
H        0.0582670882    1.7994541398   -1.0300018145
H        4.3135019215   -1.8098508162   -0.4911994685
H        3.4937067472   -1.9213482274   -2.0485951489
H        3.8291239298   -0.3227703643   -1.3442317752
H       -0.7656392934   -1.9260291569   -0.7703562947
H       -1.7946856340   -1.0808124720    0.4028178257
H       -0.4208931812   -2.0686897558    0.9547494161
H        1.8772693657    0.4708959372   -0.8146145820
19   
torsion grid (150,)
C        2.1008965895   -1.5146479039   -0.7004931221
C       -0.1276593988    1.0544555375    0.9520337996
C       -0.6143061203    1.0839201765   -0.4915569001
C        0.0817409065   -0.1441058414    0.0533797774
C        3.5797153324   -1.3423150082   -1.0326753358
C       -0.7512174527   -1.3821665405    0.3201341955
N        1.4526318787   -0.3477566811   -0.3896800660
O        1.5773321146   -2.6266773586   -0.7267088653
H        0.7354686502    1.6660413495    1.2046799125
H       -0.8614051836    0.9720028903    1.7486074145
H       -1.6821440264    1.0233654787   -0.6817526837
H       -0.0681070164    1.7080841035   -1.1939194813
H        4.1662947501   -1.9034924027   -0.2998084578
H        3.7679558626   -1.7870262818   -2.0130923564
H        3.9239829102   -0.3036050775   -1.0403798748
H       -0.8849303409   -1.9798361159   -0.5823131649
H       -1.7336409693   -1.0659689825    0.6852155167
H       -0.2866046393   -2.0188367757    1.0761496010
H        2.0251392478    0.4858363924   -0.3876957238
19   
torsion grid (165,)
C        2.0416668413   -1.4118091568   -0.9336647196
C       -0.1460577182    1.1050329317    0.8820312971
C       -0.6918815995    1.0383767101   -0.5397620142
C        0.0928274826   -0.1199817517    0.0320756847
C        3.5650874950   -1.3925086530   -0.9795934108
C       -0.6527905490   -1.3856768985    0.4152371905
N        1.4721350642   -0.2779276100   -0.4079215919
O        1.4043438278   -2.3746947655   -1.3539083496
H        0.6846806443    1.7837739033    1.0638043110
H       -0.8378149166    1.0160761563    1.7141786341
H       -1.7613451703    0.9101512637   -0.6807468474
H       -0.2020407921    1.6498494233   -1.2914004148
H        3.9470534404   -2.0784721637   -0.2168038069
H        3.8885969525   -1.7674305824   -1.9527481014
H        4.0022815138   -0.4036647761   -0.8110038409
H       -0.8099195584   -2.0357842799   -0.4450484135
H       -1.6230837021   -1.1127392903    0.8417840406
H       -0.0942400198   -1.9501404233    1.1690760424
H        2.1216438588    0.3848409214   -0.0054615042
19   
torsion grid (180,)
C        1.9453079124    0.0501176027   -1.7109182403
C       -0.1092664033    0.2511042437    1.4735492884
C       -0.4822202001    1.3995713320    0.5455266198
C        0.1034494898    0.1255755535   -0.0155821659
C        3.4282776019   -0.2621222787   -1.8612335828
C       -0.7988830119   -0.8298493577   -0.7769110932
N        1.5023126826    0.1486580337   -0.4130869202
O        1.2216394753    0.2141962600   -2.6901779150
H        0.7594910086    0.3916979514    2.1126346060
H       -0.9039618803   -0.3396809083    1.9188061059
H       -1.5340269309    1.5982344380    0.3618314214
H        0.1571186369    2.2763451388    0.5532684238
H        3.5362121004   -1.2934499734   -2.2120496741
H        3.8463542129    0.3927391491   -2.6285087938
H        4.0004707817   -0.1448080009   -0.9360794257
H       -0.8779262406   -0.5439102758   -1.8262292806
H       -1.7982103033   -0.8265198128   -0.3308295321
H       -0.4062248992   -1.8517990878   -0.7234483949
H        2.1562783240   -0.1589675736    0.2953640974
