17   
torsion grid (-165,)
C        5.6455111093    1.5569660818   -0.2856219126
C        4.3073027694    1.9343312517   -0.1859419444
C        5.9050261224    0.1868109963   -0.1971403767
C        3.6768445170   -0.2476909611    0.0722849667
C        1.1545633473   -0.9268206526   -0.0157198652
C        1.8895466615   -1.6670302638   -1.0999181220
C        2.6069328702   -1.2748483172    0.1956161981
N        3.3207729513    1.0467790460   -0.0053995179
N        4.9369362621   -0.7184886330   -0.0304014742
H        6.4389533285    2.2840106054   -0.4277999280
H        4.0105280502    2.9808351150   -0.2500749520
H        6.9216710292   -0.1987493664   -0.2707215153
H        0.9289054944    0.1210831067   -0.1797191855
H        0.4226156423   -1.4715927688    0.5735149162
H        1.6840993933   -2.7220713801   -1.2541545249
H        2.1576737903   -1.1175254194   -1.9974425399
H        2.8597062397   -2.1006625607    0.8531196288
17   
torsion grid (-150,)
C        5.6385812056    1.5677891899   -0.2833692634
C        4.3302266362    1.9637490542   -0.0121555022
C        5.8587870410    0.1903771956   -0.3660740734
C        3.6524995713   -0.2178417786    0.0730985608
C        1.1393472800   -0.8968288885   -0.1338503906
C        1.9430184523   -1.7808914827   -1.0561517058
C        2.5645170519   -1.2301564178    0.2220073557
N        3.3348973578    1.0846975672    0.1687325459
N        4.8801974317   -0.7039831712   -0.2010774234
H        6.4390535705    2.2870109344   -0.4267104368
H        4.0644620032    3.0176037764    0.0653019389
H        6.8500328970   -0.2089748958   -0.5795357410
H        0.9438132102    0.1236919133   -0.4457776548
H        0.3509905279   -1.3514265251    0.4591431206
H        1.7243695938   -2.8439996622   -1.0899535510
H        2.2851338264   -1.3586706807   -1.9965597082
H        2.7472766304   -1.9627092210    1.0037180284
17   
torsion grid (-135,)
C        5.6381141591    1.5848805448   -0.2626722696
C        4.3743994129    1.9723385794    0.1816115550
C        5.8035699603    0.2255173088   -0.5350563909
C        3.6332453791   -0.1865755918    0.0551203154
C        1.1394142315   -0.8783107025   -0.2646985844
C        1.9886763701   -1.9046215497   -0.9853305914
C        2.5295873395   -1.1827270264    0.2306628745
N        3.3704199709    1.1005153408    0.3435095391
N        4.8140803164   -0.6618144840   -0.3856827032
H        6.4455629423    2.2989720063   -0.3924664111
H        4.1538867975    3.0132664389    0.4163886395
H        6.7570625889   -0.1661710636   -0.8884956016
H        0.9894505694    0.0860760604   -0.7399808691
H        0.2985229778   -1.2246141596    0.3290758284
H        1.7386734126   -2.9563249707   -0.8819912041
H        2.4081376347   -1.6334763910   -1.9496846617
H        2.6199790041   -1.7763494700    1.1380936010
17   
torsion grid (-120,)
C        5.6443167034    1.6006157668   -0.2425451096
C        4.4383281793    1.9564581935    0.3636795994
C        5.7419822156    0.2826929855   -0.6885743140
C        3.6203421866   -0.1539481072    0.0422525037
C        1.1574412194   -0.8741620484   -0.3972792672
C        2.0373758768   -2.0053138498   -0.8969523403
C        2.5038983630   -1.1317284140    0.2376626137
N        3.4262114206    1.0939231210    0.5095990353
N        4.7433196076   -0.5987189071   -0.5500564851
H        6.4589950580    2.3086731581   -0.3598208656
H        4.2750185832    2.9642815205    0.7445692800
H        6.6476496336   -0.0836081366   -1.1712080662
H        1.0638913882    0.0110698369   -1.0193862618
H        0.2682929888   -1.1177746248    0.1765548804
H        1.7491488459   -3.0273687152   -0.6694264759
H        2.5367105887   -1.8792769406   -1.8527227488
H        2.4874693897   -1.5663323809    1.2354771676
17   
torsion grid (-105,)
C        5.6372980196    1.6105559479   -0.2389265429
C        4.5012515407    1.9191698483    0.5133657980
C        5.6585383674    0.3469738823   -0.8268559765
C        3.5995419026   -0.1283586478    0.0450571270
C        1.1809069055   -0.8858531605   -0.5224083994
C        2.0745217833   -2.0789842395   -0.8063044111
C        2.4716988981   -1.0867205587    0.2495419965
N        3.4837983633    1.0653977758    0.6603736614
N        4.6544413317   -0.5293071504   -0.6853564509
H        6.4571357728    2.3126684883   -0.3553219968
H        4.4028566423    2.8817747022    1.0146238627
H        6.5073630034    0.0175081032   -1.4253417968
H        1.1568337716   -0.0847170010   -1.2553547570
H        0.2463631285   -1.0439473024    0.0072340218
H        1.7431499766   -3.0610755678   -0.4819896059
H        2.6540406224   -2.0742863947   -1.7237976221
H        2.3460480766   -1.3754341627    1.2906763516
17   
torsion grid (-90,)
C        5.6349019370    1.6173134351   -0.2375787233
C        4.5769444192    1.8719814601    0.6389120118
C        5.5709386206    0.4166436288   -0.9427228405
C        3.5820657141   -0.1019197478    0.0569558195
C        1.2215542718   -0.9063345887   -0.6452815221
C        2.1140102727   -2.1271421174   -0.7250893884
C        2.4415157519   -1.0391409921    0.2585312780
N        3.5529941204    1.0277867701    0.7929201118
N        4.5609027825   -0.4512224491   -0.7960271758
H        6.4612136018    2.3110960965   -0.3573386435
H        4.5493717624    2.7819887239    1.2378415473
H        6.3565156895    0.1308093786   -1.6416216824
H        1.2782044438   -0.1860326030   -1.4561295598
H        0.2439833286   -0.9957934991   -0.1814846054
H        1.7389381600   -3.0662251447   -0.3289394224
H        2.7705931943   -2.2189544852   -1.5836096041
H        2.2126997111   -1.2082547520    1.3071082089
17   
torsion grid (-75,)
C        5.6296927589    1.6041648578   -0.2203858192
C        4.6512023226    1.8009357682    0.7568848794
C        5.4739943557    0.4759003319   -1.0250327996
C        3.5536972805   -0.0861805094    0.0797716548
C        1.2656091054   -0.9526327263   -0.7560650146
C        2.1454460872   -2.1743593511   -0.6392840869
C        2.3982007345   -1.0006059901    0.2697197882
N        3.6162770049    0.9703559400    0.9156509017
N        4.4530396920   -0.3771032906   -0.8777046623
H        6.4657948688    2.2857290396   -0.3416041730
H        4.6981712346    2.6516118049    1.4363714692
H        6.1939784435    0.2384208770   -1.8077445591
H        1.4091206738   -0.3105425608   -1.6199502405
H        0.2496162983   -0.9927201702   -0.3754140564
H        1.7270258200   -3.0691198393   -0.1879230357
H        2.8758284067   -2.3447244774   -1.4225239123
H        2.0755009093   -1.0691384977    1.3037769748
17   
torsion grid (-60,)
C        5.6316109733    1.6024296857   -0.2226600112
C        4.7344749345    1.7407065802    0.8380777560
C        5.3747628811    0.5568284823   -1.1104508387
C        3.5216021853   -0.0436413028    0.0858914728
C        1.3077808936   -0.9953506254   -0.8492451626
C        2.1715224161   -2.1908293461   -0.5479603137
C        2.3492352475   -0.9323183910    0.2701277732
N        3.6828312364    0.9311151743    1.0030521224
N        4.3357697887   -0.2716120624   -0.9624266640
H        6.4817880805    2.2657450062   -0.3466716639
H        4.8615107027    2.5257270923    1.5830950851
H        6.0256915336    0.3702663475   -1.9642780939
H        1.5288823509   -0.4322713378   -1.7507457546
H        0.2634836940   -1.0078265073   -0.5524396876
H        1.7197062514   -3.0412152349   -0.0459378208
H        2.9644642560   -2.4245504840   -1.2497856537
H        1.9536322602   -0.9152645706    1.2799275294
17   
torsion grid (-45,)
C        5.6366004477    1.5902774433   -0.2115277948
C        4.8100208128    1.6638775794    0.9103526683
C        5.2808454992    0.6423941989   -1.1731361604
C        3.4798261051    0.0017861689    0.0805196150
C        1.3449359497   -1.0589191227   -0.9336743759
C        2.1968435086   -2.2004276576   -0.4582072707
C        2.2883367614   -0.8609162030    0.2516255577
N        3.7358780556    0.8814916131    1.0686246190
N        4.2164212666   -0.1533055273   -1.0374432170
H        6.5056839665    2.2298249546   -0.3288930083
H        5.0131591327    2.3725430323    1.7127762631
H        5.8701780303    0.5130959441   -2.0806222176
H        1.6326475407   -0.5751299174   -1.8616104599
H        0.2806597279   -1.0696973194   -0.7188927603
H        1.7238540377   -3.0111046600    0.0879341021
H        3.0477241411   -2.4766416990   -1.0716488668
H        1.8293489437   -0.7727773305    1.2299656494
17   
torsion grid (-30,)
C        5.6488117886    1.5743247083   -0.1896618326
C        4.8823233853    1.5728676877    0.9762778563
C        5.2026754575    0.7414740960   -1.2179865061
C        3.4394321565    0.0535585124    0.0644390837
C        1.3805893859   -1.1205175197   -1.0028081823
C        2.2151049115   -2.1905420400   -0.3659548339
C        2.2251842662   -0.7797074353    0.2177913744
N        3.7828375164    0.8226254216    1.1162832606
N        4.1081183188   -0.0154429521   -1.1039492564
H        6.5386977240    2.1872313274   -0.2921680570
H        5.1551623873    2.1932054047    1.8295664197
H        5.7386293488    0.6797768911   -2.1648422471
H        1.7242726856   -0.7174314904   -1.9495892087
H        0.3041118036   -1.1428650225   -0.8614713946
H        1.7241910495   -2.9608806996    0.2211310277
H        3.1153173009   -2.4979564438   -0.8881613839
H        1.7114158861   -0.6292301485    1.1604180211
17   
torsion grid (-15,)
C        5.6503588911    1.5593516497   -0.1798101670
C        4.9354303401    1.4664578924    1.0153797235
C        5.1242540725    0.8532093561   -1.2628773550
C        3.3954669920    0.0970298223    0.0277027657
C        1.4098409104   -1.1921284204   -1.0648126275
C        2.2162611637   -2.1773557112   -0.2737808105
C        2.1594466927   -0.7088513264    0.1625468453
N        3.8152024127    0.7446655532    1.1329426217
N        4.0032666911    0.1309822131   -1.1741687439
H        6.5581031127    2.1485387682   -0.2634803496
H        5.2688452577    1.9891792895    1.9114856608
H        5.6126200521    0.8715592321   -2.2368937673
H        1.8062829717   -0.8750767894   -2.0231624097
H        0.3270115399   -1.2302313016   -0.9908310340
H        1.7026907434   -2.8985075396    0.3549067038
H        3.1547481788   -2.5157856570   -0.7015967090
H        1.5946339370   -0.4950376289    1.0628578998
17   
torsion grid (0,)
C        5.6509502625    1.5590956074   -0.1791552414
C        4.9897708812    1.3589771113    1.0346508441
C        5.0538926544    0.9880818102   -1.3030329781
C        3.3670726975    0.1387206202   -0.0151970752
C        1.4525561743   -1.2652392634   -1.1046759066
C        2.2097451666   -2.1538490192   -0.1609640022
C        2.1125434358   -0.6453053933    0.1059365574
N        3.8566809100    0.6562134289    1.1300490120
N        3.9142114953    0.2905803983   -1.2355363667
H        6.5711895857    2.1309662165   -0.2450724970
H        5.3794628796    1.7768332280    1.9625959930
H        5.4950134439    1.0999856608   -2.2931741979
H        1.9063839321   -1.0446948604   -2.0644075769
H        0.3675982255   -1.3148488596   -1.0997963054
H        1.6592939364   -2.8105290236    0.5060108963
H        3.1750961802   -2.5302915209   -0.4855448512
H        1.4959383231   -0.3568966059    0.9502408188
17   
torsion grid (15,)
C        5.6585599049    1.5640305235   -0.1838782856
C        5.0555192499    1.2414292629    1.0345530257
C        4.9934730737    1.1310041133   -1.3299123758
C        3.3580976351    0.1673229607   -0.0567994211
C        1.5126057331   -1.3392320702   -1.1302546026
C        2.1842337290   -2.1223617263   -0.0347229417
C        2.0848396171   -0.5961992880    0.0505957074
N        3.9156525137    0.5488130616    1.1108263693
N        3.8429329813    0.4472338499   -1.2794654466
H        6.5863070938    2.1253443225   -0.2349218409
H        5.4999233458    1.5491634591    1.9808235761
H        5.3848574073    1.3461904701   -2.3238226232
H        2.0388110689   -1.2262815070   -2.0717688764
H        0.4304485181   -1.3895257761   -1.2087975185
H        1.5743336514   -2.7000433574    0.6533300111
H        3.1647439870   -2.5426213394   -0.2383159465
H        1.4102141232   -0.2177274816    0.8120484604
17   
torsion grid (30,)
C        5.6667259453    1.5620939678   -0.1861868106
C        5.1314762143    1.0954149191    1.0171725548
C        4.9321755934    1.2758540873   -1.3354828497
C        3.3607683871    0.1717734839   -0.0959153063
C        1.5884487921   -1.4279547469   -1.1539738704
C        2.1406716705   -2.0973919492    0.0812958068
C        2.0719464048   -0.5774075491   -0.0091345459
N        3.9896604126    0.4040114068    1.0741621569
N        3.7787404518    0.5943261488   -1.3015384441
H        6.5975002872    2.1196926675   -0.2226835648
H        5.6339009083    1.2815958241    1.9661301665
H        5.2685526385    1.6082178419   -2.3171239435
H        2.1990186916   -1.4255620616   -2.0508558037
H        0.5179664964   -1.4755352343   -1.3316859820
H        1.4551086182   -2.5914838802    0.7632169346
H        3.1234565438   -2.5552470684    0.0166008395
H        1.3357946885   -0.1049568704    0.6357191682
17   
torsion grid (45,)
C        5.6621907379    1.5735182370   -0.1964388570
C        5.2084450396    0.9526270694    0.9689710885
C        4.8492623352    1.4366601777   -1.3210848638
C        3.3563226900    0.1819277490   -0.1275931241
C        1.6701675544   -1.5188357946   -1.1625597389
C        2.0789984002   -2.0558133369    0.1931953817
C        2.0601214214   -0.5636360508   -0.0644932556
N        4.0662484578    0.2585368132    1.0146757697
N        3.6986590591    0.7510939398   -1.2971021716
H        6.5929702287    2.1317210243   -0.2247513989
H        5.7773271787    1.0115600166    1.8965357325
H        5.1219580943    1.8917141026   -2.2728536660
H        2.3673323778   -1.6271666089   -1.9875484236
H        0.6229999176   -1.5698921454   -1.4461259621
H        1.3144666667   -2.4684182587    0.8447417111
H        3.0512442967   -2.5316394411    0.2818709087
H        1.2636486890   -0.0047591129    0.4224491314
17   
torsion grid (60,)
C        5.6599031789    1.5744733225   -0.1969303568
C        4.8048462111    1.4991940224   -1.2963812788
C        5.4711648452    0.6108538560    0.7950993112
C        3.7562012969   -0.3213306532   -0.3949637676
C        1.6302555804   -1.4968126879    0.5427038536
C        1.2911655283   -1.0385361743   -0.8638009650
C        2.7120790115   -1.3885507936   -0.5057032379
N        3.8550745979    0.5614927879   -1.4053146725
N        4.5271288408   -0.3332991389    0.7088939728
H        6.4259034639    2.3396444873   -0.1161205728
H        4.8790212877    2.2109969300   -2.1180595737
H        6.0928925573    0.5941989611    1.6898584077
H        1.6308445652   -0.7533144573    1.3342195767
H        1.3232726412   -2.4899684238    0.8567326338
H        0.7461828948   -1.7156816100   -1.5148279757
H        1.0676311576    0.0128180373   -1.0168671931
H        3.1000605927   -2.3289168693   -0.8930918761
17   
torsion grid (75,)
C        5.6595290506    1.5740986227   -0.1874209894
C        4.6935428285    1.5903243390   -1.1920446887
C        5.5907663721    0.5090291167    0.7141014311
C        3.7769139014   -0.3425238936   -0.3864233184
C        1.5732413133   -1.3693567847    0.5207013901
C        1.3416742548   -1.1161385994   -0.9577687245
C        2.7295408434   -1.4059503149   -0.4602183770
N        3.7528802177    0.6420475191   -1.3012874024
N        4.6562393859   -0.4425202145    0.6304542783
H        6.4182797507    2.3464084833   -0.1069309925
H        4.6670731092    2.3856988911   -1.9362946473
H        6.3027097180    0.4190859827    1.5342347456
H        1.5167555037   -0.5196503277    1.1948095126
H        1.2466748908   -2.3115425421    0.9502707332
H        0.8396300815   -1.8819646793   -1.5416622028
H        1.1390955927   -0.0976250990   -1.2726243865
H        3.1380943263   -2.3957894380   -0.6518118123
17   
torsion grid (90,)
C        5.6682078903    1.5713773818   -0.1719463449
C        4.6033097371    1.6661520677   -1.0662012679
C        5.7018883211    0.4231488942    0.6237568686
C        3.7944069760   -0.3541792333   -0.3669009974
C        1.5167274308   -1.2349557481    0.4789661201
C        1.3944608140   -1.1746418759   -1.0295962969
C        2.7428588103   -1.4088444433   -0.4087363772
N        3.6667114137    0.7141513008   -1.1731232802
N        4.7730011098   -0.5335339163    0.5437008710
H        6.4246329200    2.3461528537   -0.0945306665
H        4.4925676369    2.5294826048   -1.7217139868
H        6.4949869720    0.2688574251    1.3550502513
H        1.4289484676   -0.3028654166    1.0294420788
H        1.1521934060   -2.1122788207    1.0044799642
H        0.9259323334   -2.0098809613   -1.5417700756
H        1.2311681146   -0.2038617792   -1.4848980778
H        3.1485718340   -2.4166485505   -0.4282061403
17   
torsion grid (105,)
C        5.6407243521    1.5674814786   -0.1667428713
C        4.4896901088    1.7079443089   -0.9414788190
C        5.7681100758    0.3636681057    0.5302825933
C        3.7810753193   -0.3755425512   -0.3227435987
C        1.4412450855   -1.1626368188    0.4269183822
C        1.4394087294   -1.2739588074   -1.0787872557
C        2.7389901492   -1.4340911758   -0.3339161648
N        3.5602657562    0.7488017505   -1.0283278908
N        4.8486859236   -0.6042640334    0.4687942176
H        6.3917092496    2.3488993469   -0.1060330846
H        4.3034459354    2.6159485470   -1.5144295423
H        6.6326994619    0.1703068587    1.1648195955
H        1.3207945942   -0.1732221594    0.8577909989
H        1.0348836503   -1.9767877690    1.0191880743
H        1.0134606148   -2.1657035994   -1.5290557887
H        1.3188109364   -0.3594542411   -1.6489120669
H        3.1422007362   -2.4341811017   -0.2098828951
17   
torsion grid (120,)
C        5.6439884230    1.5668763486   -0.1705550216
C        4.4188818217    1.7490210390   -0.8138292475
C        5.8411377904    0.3228407133    0.4314572040
C        3.7756629212   -0.3718589646   -0.2553344073
C        1.3762238115   -1.0936466788    0.3705634858
C        1.5017053916   -1.3370659733   -1.1089831392
C        2.7373437360   -1.4297592571   -0.2417987686
N        3.4848051018    0.7939643742   -0.8638938038
N        4.9196135349   -0.6461375668    0.4027563095
H        6.3978386722    2.3471679373   -0.1384709808
H        4.1764265081    2.6901624176   -1.3067574385
H        6.7663669637    0.0941808856    0.9597494136
H        1.2312475388   -0.0690718186    0.6987584618
H        0.9158004737   -1.8529042407    0.9954446285
H        1.1162567700   -2.2672195691   -1.5157293444
H        1.4372744784   -0.4739871605   -1.7625317005
H        3.1291106012   -2.4143366176   -0.0103772815
17   
torsion grid (135,)
C        5.6530272831    1.5564022329   -0.1867020281
C        4.3712084372    1.7817863849   -0.6925806724
C        5.8942931385    0.2810940395    0.3257889924
C        3.7605538588   -0.3608506921   -0.1793020404
C        1.3092111803   -1.0432859631    0.3028156898
C        1.5681209416   -1.3933730109   -1.1338446413
C        2.7215042873   -1.4154502894   -0.1451343803
N        3.4252797988    0.8385183225   -0.6948308662
N        4.9629835074   -0.6798458058    0.3385456398
H        6.4160629797    2.3283052939   -0.1909217613
H        4.0928554510    2.7490738062   -1.1102687488
H        6.8656467204    0.0172850603    0.7432031773
H        1.1411581985    0.0025755425    0.5389404352
H        0.7899165707   -1.7577372651    0.9343834839
H        1.2250145721   -2.3539407706   -1.5063884988
H        1.5687056031   -0.5805246410   -1.8521747328
H        3.0967730476   -2.3812363609    0.1741724876
17   
torsion grid (150,)
C        5.6590039375    1.5537427312   -0.2142700599
C        4.3361165744    1.8174159976   -0.5756174696
C        5.9307587983    0.2524006277    0.2095522334
C        3.7448296596   -0.3384740792   -0.0966087560
C        1.2569032989   -1.0090851712    0.2427456995
C        1.6456613630   -1.4494388601   -1.1364547762
C        2.7044601244   -1.3904010300   -0.0383707507
N        3.3789028562    0.8874825342   -0.5210649560
N        4.9902111989   -0.6977484583    0.2717788643
H        6.4300421006    2.3162241570   -0.2609847076
H        4.0330151183    2.8059920487   -0.9197653392
H        6.9357477886   -0.0430272826    0.5096861325
H        1.0619610661    0.0476401733    0.3922819663
H        0.6844312745   -1.6884619514    0.8671740993
H        1.3475630129   -2.4365948483   -1.4767736412
H        1.7101180737   -0.6858298740   -1.9047336771
H        3.0630135206   -2.3341198666    0.3566105486
17   
torsion grid (165,)
C        5.6574290691    1.5472286338   -0.2457997823
C        4.3122270226    1.8535395973   -0.4588366688
C        5.9401575412    0.2209176317    0.0843886095
C        3.7202947710   -0.3113320773   -0.0225469286
C        1.2083013249   -0.9769607278    0.1699121136
C        1.7232619572   -1.5048289183   -1.1353437686
C        2.6733022972   -1.3564714519    0.0576523437
N        3.3429291354    0.9402167313   -0.3495929338
N        4.9886619956   -0.7131959189    0.1934237587
H        6.4377658548    2.2964912817   -0.3338800114
H        3.9998332676    2.8630424216   -0.7251293678
H        6.9632559282   -0.1082686837    0.2642223037
H        0.9927526616    0.0843209013    0.2296168288
H        0.5822921563   -1.6213502582    0.7800026262
H        1.4661923301   -2.5162109144   -1.4355508000
H        1.8554402801   -0.7958189763   -1.9464653381
H        3.0069013472   -2.2751412937    0.5268944727
17   
torsion grid (180,)
C        5.6500929690    1.5540844897   -0.2674597305
C        4.2993272698    1.8969095010   -0.3296078685
C        5.9305083652    0.2041188535   -0.0452766033
C        3.6978254092   -0.2776071480    0.0382344928
C        1.1754830560   -0.9545415955    0.0831510863
C        1.8126416550   -1.5767506472   -1.1253517281
C        2.6428135511   -1.3164052227    0.1385932737
N        3.3215965733    0.9969118516   -0.1768470762
N        4.9717327382   -0.7160225666    0.0997810940
H        6.4366350878    2.2923563809   -0.3879072742
H        3.9869671546    2.9259802772   -0.5055074106
H        6.9579109421   -0.1545796220    0.0123678345
H        0.9434601325    0.1038200496    0.0409435097
H        0.4982245616   -1.5599967909    0.6783673165
H        1.5929378129   -2.6122970497   -1.3671536030
H        2.0108742905   -0.9348260560   -1.9782658880
H        2.9441074807   -2.1981825704    0.6935496699
