15   
torsion grid (-165,)
C        1.8716009345   -1.0773066235   -0.1320049937
C        3.0666071817   -1.0442940356    0.5962055592
C        0.6459102250   -1.0968393054    0.5383833649
C        3.0408367908   -1.0293299156    1.9905656197
C        0.6075964143   -1.0850381311    1.9355477738
C        1.8057280989   -1.0534809515    2.6608942739
O        2.3121749805    0.3504507629    5.0401339244
P        1.8490840768   -0.9289314901    4.4640429912
Cl      -0.0259702686   -1.5073796127    5.1114255070
Cl       3.0208912128   -2.5358101334    5.0508410968
H        1.8974157154   -1.0895395144   -1.2182723740
H        4.0213479776   -1.0289849504    0.0783392094
H       -0.2842244978   -1.1232926578   -0.0221435696
H        3.9726143320   -1.0027673449    2.5482468073
H       -0.3482037787   -1.1069784193    2.4477546347
15   
torsion grid (-150,)
C        1.8625094228   -1.0796415986   -0.1151172736
C        3.0701732126   -1.1530156340    0.5865947896
C        0.6518228376   -1.0086615652    0.5807179981
C        3.0720875809   -1.1565290431    1.9825093428
C        0.6421748610   -1.0120085811    1.9771738662
C        1.8544753242   -1.0950066287    2.6782615140
O        2.0332271054    0.4296957084    5.0349051063
P        1.8753174541   -0.9306163098    4.4796360665
Cl       0.1520241670   -1.8783530847    5.1227490551
Cl       3.3531500463   -2.2379305950    5.1064386562
H        1.8651087158   -1.0799278673   -1.2017360889
H        4.0128383283   -1.2083213515    0.0495916051
H       -0.2880986831   -0.9515351314    0.0391258720
H        4.0136389058   -1.2183272643    2.5191946958
H       -0.3024790080   -0.9618413824    2.5090459139
15   
torsion grid (-135,)
C        1.8531895787   -1.0571711091   -0.1046753450
C        3.0632126212   -1.2244016747    0.5742997733
C        0.6621383448   -0.9018251072    0.6132936314
C        3.0901588818   -1.2392110156    1.9712728805
C        0.6778185946   -0.9143292823    2.0082203082
C        1.8940339934   -1.0954205214    2.6878368721
O        1.7412690463    0.4265729087    5.0441633280
P        1.8823561727   -0.9357140502    4.4890440816
Cl       0.3673117605   -2.2081313224    5.1029894387
Cl       3.5792788090   -1.9184553860    5.1417720813
H        1.8368916010   -1.0481672091   -1.1911394987
H        3.9897878522   -1.3439713475    0.0200335692
H       -0.2798639513   -0.7690647583    0.0888536504
H        4.0333400428   -1.3737582970    2.4901707879
H       -0.2505414376   -0.7938470566    2.5586843951
15   
torsion grid (-120,)
C        1.8421807245   -1.0681388855   -0.1097296933
C        3.0458988900   -1.3044847856    0.5590469573
C        0.6715413158   -0.8235757740    0.6180640113
C        3.0869433651   -1.3026737032    1.9563200782
C        0.7019641587   -0.8140762007    2.0121686346
C        1.9121127132   -1.0675173338    2.6816704468
O        1.4698648224    0.3900580552    5.0320634108
P        1.8729370752   -0.9208274209    4.4818754264
Cl       0.6078220189   -2.4475944270    5.0851115297
Cl       3.7145197536   -1.5761029829    5.1479170723
H        1.8147805639   -1.0721522729   -1.1960212443
H        3.9569615633   -1.4897171331   -0.0028443614
H       -0.2647772014   -0.6347276359    0.1006898266
H        4.0244739087   -1.4901505202    2.4683489440
H       -0.2072171726   -0.6144976306    2.5723283187
15   
torsion grid (-105,)
C        1.8615040465   -1.0663206926   -0.0920272210
C        3.0339470977   -1.3874117308    0.5976530131
C        0.6964979439   -0.7436728871    0.6136787325
C        3.0486335118   -1.3956257207    1.9951519079
C        0.7008888046   -0.7435433549    2.0083946383
C        1.8773410298   -1.0861888663    2.6979546079
O        1.1281624201    0.2093794720    5.0557821681
P        1.7772990236   -0.9950107242    4.4974458274
Cl       0.7878095218   -2.7356378403    5.0365258674
Cl       3.6885967099   -1.3220778907    5.2025464660
H        1.8556732012   -1.0617032462   -1.1786656267
H        3.9409457862   -1.6295373379    0.0510123706
H       -0.2129879785   -0.4837586640    0.0794948741
H        3.9612063952   -1.6472251469    2.5248083881
H       -0.1973994940   -0.4744310989    2.5566498983
15   
torsion grid (-90,)
C        1.8628634203   -1.0613260527   -0.0980597737
C        3.0058607690   -1.4619303009    0.6016451181
C        0.7157689546   -0.6630747443    0.5968407605
C        3.0067015160   -1.4735895149    1.9980033728
C        0.7058143585   -0.6661972235    1.9926291391
C        1.8510509312   -1.0867379136    2.6897722200
O        0.8867244752    0.0376242014    5.0495402525
P        1.7353187836   -1.0338007346    4.4878700458
Cl       1.0734547445   -2.9239412308    5.0223768952
Cl       3.6780280592   -1.0272974344    5.1865608185
H        1.8685457466   -1.0529508724   -1.1847072254
H        3.8998407432   -1.7616303599    0.0621733517
H       -0.1683519681   -0.3406558064    0.0541450973
H        3.8959646581   -1.7834149509    2.5371270749
H       -0.1740567217   -0.3370524201    2.5374910354
15   
torsion grid (-75,)
C        1.8648280575   -1.0631352164   -0.0869127367
C        2.9767449253   -1.5384796731    0.6188347875
C        0.7463389350   -0.5805452721    0.5993903132
C        2.9722032141   -1.5379768003    2.0140754258
C        0.7326562691   -0.5730908927    1.9963290278
C        1.8448118755   -1.0623246574    2.6989705783
O        0.7211944154   -0.0989782864    5.0574303277
P        1.7311845414   -1.0200793329    4.4958515584
Cl       1.4189100912   -2.9919605299    5.0500637113
Cl       3.6539115531   -0.6778319586    5.1683384137
H        1.8739254805   -1.0647275711   -1.1735758267
H        3.8478619683   -1.9053213415    0.0833784014
H       -0.1123376177   -0.2036003432    0.0509671747
H        3.8363566441   -1.9040056911    2.5600179817
H       -0.1236724208   -0.1862352133    2.5403163593
15   
torsion grid (-60,)
C        1.8753169893   -1.0548737954   -0.0607399140
C        2.9411034550   -1.6155089269    0.6552546368
C        0.7893099412   -0.4918676574    0.6153624821
C        2.9232521477   -1.6160990636    2.0495794001
C        0.7600812471   -0.4859823512    2.0128447342
C        1.8291718374   -1.0521720895    2.7224194465
O        0.5718884084   -0.2590417764    5.0759560550
P        1.7161991036   -1.0093879175    4.5181559234
Cl       1.7671018556   -2.9940330814    5.1044375618
Cl       3.5614248163   -0.3305048383    5.1613735491
H        1.8949973870   -1.0561893595   -1.1473054971
H        3.7851412384   -2.0497215363    0.1269261776
H       -0.0347761986   -0.0548408219    0.0585316573
H        3.7505210688   -2.0488016246    2.6048883505
H       -0.0741272712   -0.0474387249    2.5518717123
15   
torsion grid (-45,)
C        1.8836435747   -1.0352910216   -0.0741169642
C        2.9006772787   -1.6819220057    0.6401592520
C        0.8317751306   -0.4138317086    0.6048210873
C        2.8701426271   -1.7076568831    2.0339826030
C        0.7885053983   -0.4326011059    2.0017687890
C        1.8135921448   -1.0781373545    2.7086690525
O        0.4344239369   -0.5146260937    5.0611487477
P        1.6904119472   -1.0579719423    4.5039679503
Cl       2.1119773232   -2.9943320048    5.0974404451
Cl       3.3840662852   -0.0507206707    5.1410727153
H        1.9121081247   -1.0196697412   -1.1603756738
H        3.7153597526   -2.1675373783    0.1105549674
H        0.0415871305    0.0837602537    0.0497456401
H        3.6576266899   -2.2112241727    2.5873039937
H       -0.0263335700    0.0400696250    2.5416651442
15   
torsion grid (-30,)
C        1.7618912606   -1.0618306258    0.1507963654
C        2.6401812847   -1.2665686114    1.2215443473
C        0.6694794566   -0.2001570670    0.2900969896
C        2.4334539992   -0.6067662226    2.4336034103
C        0.4501801223    0.4635994274    1.4994025807
C        1.3428931647    0.2647761758    2.5644543391
O       -0.4169093932    1.6241687689    4.2438155466
P        0.9778577525    1.1644243073    4.0813910896
Cl       1.6704351433   -0.0293210034    5.6191424285
Cl       2.3529491588    2.7158758400    4.1113688340
H        1.9265392783   -1.5799925020   -0.7901329962
H        3.4834525843   -1.9429833688    1.1145730949
H       -0.0168072297   -0.0484446844   -0.5382255913
H        3.1146364671   -0.7684939585    3.2633408605
H       -0.4048825004    1.1210839141    1.6240578640
15   
torsion grid (-15,)
C        7.8323368798    1.2565280475    2.9368401538
C        6.9735926737    0.2215143936    2.5530473869
C        9.0008123451    1.5072578477    2.2092251619
C        7.2730448291   -0.5621638854    1.4365180151
C        9.3134040455    0.7274885930    1.0947119824
C        8.4364857081   -0.2979519340    0.7016832904
O       10.4012288357   -1.4658440554   -0.8977431965
P        8.9478954859   -1.2530547297   -0.7392532322
Cl       7.8242042314   -2.9859670256   -0.7054198157
Cl       8.1076880870   -0.2464575710   -2.3465499394
H        7.5948728604    1.8626868749    3.8069422796
H        6.0717767366    0.0193609291    3.1239436486
H        9.6746070497    2.3031171651    2.5137309829
H        6.6046078178   -1.3647854906    1.1430035392
H       10.2304048668    0.9039895381    0.5402328563
15   
torsion grid (0,)
C        1.7633934095   -1.0625700086    0.1235802349
C        2.5631727918   -1.4100251624    1.2156818201
C        0.7958612324   -0.0591756795    0.2524172690
C        2.4072327614   -0.7540744142    2.4399931927
C        0.6276411908    0.5987442660    1.4705405883
C        1.4481190345    0.2592830715    2.5609087290
O       -0.3215414337    1.1990241490    4.5122184679
P        1.0959004024    1.1318714881    4.1009681336
Cl       2.3582249709    0.3272048023    5.5229577937
Cl       1.9269275826    3.0106304173    3.8097096249
H        1.8893197917   -1.5755999724   -0.8260428873
H        3.3089011943   -2.1940753016    1.1196510340
H        0.1664177162    0.2059284007   -0.5923167587
H        3.0327034422   -1.0270065855    3.2830466350
H       -0.1354261347    1.3648526577    1.5749825555
15   
torsion grid (15,)
C        1.7579384094   -1.0618422475    0.0973309977
C        2.5056252597   -1.4835603904    1.1997116730
C        0.8527457838   -0.0018337390    0.2267952139
C        2.3573865516   -0.8477012208    2.4356735170
C        0.6934212614    0.6362831557    1.4564478487
C        1.4583780056    0.2192002392    2.5598547881
O       -0.2724620101    0.8564987123    4.6711663385
P        1.0953929721    1.0214862735    4.1374622822
Cl       2.5835915370    0.4159282324    5.4358868719
Cl       1.5862087098    3.0097124263    3.8151919811
H        1.8779765435   -1.5582817046   -0.8617829305
H        3.2055644345   -2.3086705079    1.1030810775
H        0.2670945837    0.3253482021   -0.6276084357
H        2.9437931457   -1.1784898464    3.2859908359
H       -0.0157397718    1.4534671537    1.5538053158
15   
torsion grid (30,)
C        1.7624629069   -1.0687049287    0.1052902678
C        2.4502804512   -1.5253572261    1.2330771941
C        0.9270364991    0.0498044221    0.1990333640
C        2.3089319181   -0.8675931185    2.4575720947
C        0.7781242984    0.7136757376    1.4171591282
C        1.4802848279    0.2598339715    2.5459463371
O       -0.1355520730    0.6771965099    4.8085308925
P        1.1288632969    1.0438633561    4.1373841889
Cl       2.8065672403    0.7031543806    5.2972953074
Cl       1.2739209345    3.0734662114    3.7491512488
H        1.8772854603   -1.5820333359   -0.8455325807
H        3.0989053448   -2.3940195774    1.1640401426
H        0.3894837864    0.4064089040   -0.6749877720
H        2.8500700759   -1.2261653556    3.3269022667
H        0.1293708073    1.5820912564    1.4815118626
15   
torsion grid (45,)
C        1.7836206292   -1.0779270657    0.1048101662
C        2.3854158852   -1.5666153105    1.2691698524
C        1.0031074185    0.0808215147    0.1552977712
C        2.2102984291   -0.9006323806    2.4831609687
C        0.8215159273    0.7560043708    1.3644565759
C        1.4334471494    0.2680350409    2.5283103548
O       -0.0081278237    0.4378828082    4.9373534074
P        1.0864592398    1.0230598706    4.1353394956
Cl       2.9077750047    1.0030771885    5.1208366994
Cl       0.8220502017    3.0360845353    3.7402522033
H        1.9246242547   -1.5977178856   -0.8389663030
H        2.9927582192   -2.4666090330    1.2348788969
H        0.5340107889    0.4637547895   -0.7465463938
H        2.6846354483   -1.2847396115    3.3809704096
H        0.2181736165    1.6575150729    1.3923103300
15   
torsion grid (60,)
C        1.7795168886   -1.0679379113    0.1092286631
C        2.2961802108   -1.6149842109    1.2896607551
C        1.0823547663    0.1423871620    0.1446620864
C        2.1153590672   -0.9555596739    2.5051132220
C        0.8987267156    0.8140825392    1.3566430762
C        1.4164891684    0.2636934282    2.5360481389
O        0.2986759967    0.2530147376    5.1082398107
P        1.1501524191    1.0049079579    4.1630335762
Cl       3.0631363320    1.3090999895    4.8994859394
Cl       0.4971096777    2.9315977034    3.8066058427
H        1.9221957854   -1.5847298578   -0.8359332412
H        2.8387492671   -2.5557561782    1.2651720667
H        0.6806575838    0.5695608861   -0.7697870996
H        2.5160427323   -1.3860840609    3.4184099685
H        0.3622705493    1.7565358327    1.3747428801
15   
torsion grid (75,)
C        1.8109315552   -1.0877166372    0.0892494056
C        2.2043532173   -1.6857730796    1.2922266192
C        1.1945729896    0.1666249102    0.0964645535
C        1.9809075880   -1.0323768110    2.5039229116
C        0.9708229934    0.8330938950    1.3043883513
C        1.3576985640    0.2280295374    2.5067287258
O        0.5736315163    0.1391481730    5.1880120179
P        1.1526174115    0.9918269707    4.1290171771
Cl       3.0579385744    1.6490376460    4.6159634615
Cl       0.1267091153    2.7544742060    3.8156766253
H        1.9855783440   -1.6002208751   -0.8529044043
H        2.6825032889   -2.6611858116    1.2881420887
H        0.8891651400    0.6314786757   -0.8366614338
H        2.2761789659   -1.5005036392    3.4386896283
H        0.5003257663    1.8104205454    1.3035781913
15   
torsion grid (90,)
C        1.8162098878   -1.0880495020    0.0954454847
C        2.1285494300   -1.7228368007    1.3024011267
C        1.2874019808    0.2070128963    0.0986955583
C        1.9129239625   -1.0672624879    2.5158172546
C        1.0718552111    0.8748710596    1.3058864402
C        1.3776833606    0.2317982370    2.5129021762
O        0.8762864506    0.1135086562    5.2519350723
P        1.2086995975    1.0134770488    4.1279945886
Cl       3.0089615023    1.9995497628    4.4172261993
Cl      -0.1190849788    2.5733759557    3.8702503278
H        1.9828930259   -1.6027386215   -0.8470202978
H        2.5364782500   -2.7296730137    1.3011001581
H        1.0430139243    0.6996023615   -0.8381483638
H        2.1405585655   -1.5604019624    3.4562801561
H        0.6663672479    1.8813989853    1.3037947777
15   
torsion grid (105,)
C        1.8507026638   -1.0251265993   -0.1094378289
C        2.9526185932   -0.5214403525    0.5883917840
C        0.7789718311   -1.6008803322    0.5837841394
C        2.9897443960   -0.5889240724    1.9833555338
C        0.8029085392   -1.6717451527    1.9768810899
C        1.9125693340   -1.1687295407    2.6712861526
O        3.3627800133   -0.9595518298    5.0396097064
P        2.0126055899   -1.1462541951    4.4687691292
Cl       0.6800888024    0.3308926379    5.0480423248
Cl       1.0564732681   -2.8657440150    5.0998005203
H        1.8260701291   -0.9715330588   -1.1945558298
H        3.7850039533   -0.0776449354    0.0495858106
H       -0.0750093786   -1.9942522559    0.0396826115
H        3.8441084323   -0.2094276409    2.5356518416
H       -0.0293146786   -2.1173845723    2.5134280414
15   
torsion grid (120,)
C        1.8611711763   -1.0477617151   -0.1109249437
C        2.9909036742   -0.6007848464    0.5799991197
C        0.7504554401   -1.5357513785    0.5898625460
C        3.0184503585   -0.6385275565    1.9770503052
C        0.7658420098   -1.5778347862    1.9835870486
C        1.9031346842   -1.1293981585    2.6714235279
O        3.3149148806   -0.7386855851    5.0384499202
P        2.0082252115   -1.1271003401    4.4681497590
Cl       0.4433839100    0.0749182118    5.0942432639
Cl       1.3600034129   -3.0032645713    5.0512753034
H        1.8437669622   -1.0179509979   -1.1971254750
H        3.8517582199   -0.2236150700    0.0351540871
H       -0.1257210878   -1.8834306942    0.0499529608
H        3.8901780367   -0.2979483179    2.5273551454
H       -0.0951886780   -1.9566210253    2.5268670975
15   
torsion grid (135,)
C        1.8731480444   -1.0671455264   -0.1286403573
C        3.0238208426   -0.6767175603    0.5620504716
C        0.7282489470   -1.4664980909    0.5731561056
C        3.0385423736   -0.6829033335    1.9597594263
C        0.7310599182   -1.4773379047    1.9675545411
C        1.8879491107   -1.0821262441    2.6553550541
O        3.2238881804   -0.5102153787    5.0309862601
P        1.9956684626   -1.0928528074    4.4518289487
Cl       0.2467039240   -0.2015585144    5.1048170841
Cl       1.6816918621   -3.0671305298    4.9917318933
H        1.8652850387   -1.0602444126   -1.2153318042
H        3.9103726978   -0.3661605992    0.0163863401
H       -0.1650199211   -1.7684542597    0.0337515550
H        3.9238183247   -0.3784966036    2.5096824348
H       -0.1567363782   -1.7865661813    2.5116992889
15   
torsion grid (150,)
C        1.8811914935   -1.0887244900   -0.1321361739
C        3.0495678099   -0.7624049649    0.5632186524
C        0.7066387851   -1.3955214570    0.5653932961
C        3.0515361791   -0.7415987745    1.9599967170
C        0.6967621414   -1.3807787203    1.9605056812
C        1.8698922290   -1.0480324118    2.6529043615
O        3.1069806376   -0.3101156570    5.0394323963
P        1.9878280744   -1.0733112503    4.4493601005
Cl       0.1186714589   -0.5214486651    5.1365582509
Cl       2.0303050199   -3.0875545286    4.9372608641
H        1.8836413738   -1.1027394048   -1.2187531898
H        3.9596256329   -0.5216413185    0.0210541018
H       -0.2008319444   -1.6464394642    0.0235210284
H        3.9504479959   -0.4801846155    2.5101641544
H       -0.2141445686   -1.6208745709    2.5003277758
15   
torsion grid (165,)
C        1.8762738825   -1.1000235294   -0.1281456828
C        3.0604534467   -0.8501672992    0.5739238269
C        0.6772331323   -1.3016009992    0.5632503101
C        3.0512051481   -0.8004341475    1.9687149739
C        0.6554781760   -1.2600928226    1.9589574143
C        1.8427403425   -1.0016132291    2.6569574120
O        2.9267480245   -0.0469101875    5.0453219909
P        1.9587704878   -0.9943813782    4.4555524988
Cl       0.0236884904   -0.7931440652    5.1508246101
Cl       2.3708680205   -2.9680301345    4.9465880083
H        1.8875225677   -1.1360911820   -1.2141777138
H        3.9913081281   -0.6906377354    0.0371328726
H       -0.2425246776   -1.4932047687    0.0179223709
H        3.9648128785   -0.5931914964    2.5182956165
H       -0.2755175081   -1.4218221061    2.4922410881
15   
torsion grid (180,)
C        1.8766301105   -1.0997765285   -0.1402242201
C        3.0714627543   -0.9463173410    0.5729350286
C        0.6620685295   -1.2133352747    0.5415570727
C        3.0540031028   -0.9045667425    1.9667507802
C        0.6331086809   -1.1786141252    1.9385614873
C        1.8294081255   -1.0181691924    2.6485711836
O        2.6868602844    0.1463069114    5.0464983221
P        1.9309186311   -0.9743804005    4.4503994913
Cl      -0.0055260018   -1.1611514772    5.1429492219
Cl       2.7350900287   -2.8227630096    4.9429154755
H        1.8938760412   -1.1311487517   -1.2262896213
H        4.0165279007   -0.8568810749    0.0448062714
H       -0.2659336513   -1.3324854599   -0.0104153487
H        3.9805794000   -0.7758461053    2.5191326803
H       -0.3116766455   -1.2765108226    2.4621418290
