23   
torsion grid (-165,)
C       -0.1669666972   -1.0964320434    0.5512812638
C       -1.6673299880   -0.8806258574    0.3067858080
C       -2.6318822522   -1.5822592475    1.2961107442
C       -2.4829526877   -0.9779311268    2.7058084507
C       -4.0752274388   -1.3330806566    0.8175702487
C       -2.3499675987   -3.1023445507    1.3905368857
C       -2.4322561476   -3.8915932440    0.0778935793
H        0.4234926366   -0.3674201581   -0.0138827398
H        0.1585230575   -2.0986997498    0.2552671441
H        0.0967151132   -0.9616637011    1.6052686297
H       -1.8822587775    0.1954115553    0.3459610739
H       -1.9107226069   -1.1928874113   -0.7158393263
H       -3.2142285726   -1.4178213588    3.3937002168
H       -2.6495722357    0.1055247128    2.6899571575
H       -1.4890249957   -1.1587199336    3.1275929875
H       -4.7997252009   -1.8325237887    1.4716439361
H       -4.3052816239   -0.2612690941    0.8226736925
H       -4.2357123624   -1.6973574195   -0.2021918301
H       -1.3550554051   -3.2476402979    1.8289425303
H       -3.0580955881   -3.5350299353    2.1097672755
H       -2.2149336728   -4.9504206886    0.2555481037
H       -3.4281153214   -3.8342840119   -0.3726775335
H       -1.7109995595   -3.5299632387   -0.6621765377
23   
torsion grid (-150,)
C       -0.0931325630   -1.1896448688    0.5235137637
C       -1.5901103801   -0.9315065935    0.2721825094
C       -2.5771916131   -1.6077134419    1.2574348599
C       -2.4255508650   -0.9999365963    2.6651176415
C       -4.0115281182   -1.3297200615    0.7678813483
C       -2.3271165479   -3.1330305620    1.3573175079
C       -2.4253483588   -3.9239171571    0.0467053074
H        0.5126756397   -0.3403582165    0.1915240786
H        0.2632461138   -2.0897272903    0.0132011024
H        0.1234314334   -1.3145004885    1.5892619586
H       -1.7793762681    0.1486718047    0.3184261640
H       -1.8414750402   -1.2289206944   -0.7523954243
H       -3.1607145463   -1.4324024423    3.3535498523
H       -2.5847237669    0.0845214619    2.6447142404
H       -1.4335411131   -1.1849235097    3.0897016635
H       -4.7510586695   -1.8088055262    1.4203619093
H       -4.2179369527   -0.2530970043    0.7648414845
H       -4.1735104670   -1.6969162090   -0.2505309230
H       -1.3346834667   -3.2974344668    1.7945962366
H       -3.0432483576   -3.5495216056    2.0782207772
H       -2.2215364887   -4.9851668799    0.2258763912
H       -3.4219173871   -3.8543333592   -0.4005212172
H       -1.7015578324   -3.5735052916   -0.6962892335
23   
torsion grid (-135,)
C       -0.1715385155   -1.0304783796    0.5900792246
C       -1.6843088751   -0.8554870449    0.3309431568
C       -2.6390584562   -1.5404079390    1.3416486523
C       -2.4951463411   -0.8902273765    2.7309244513
C       -4.0858041969   -1.3240248798    0.8572688704
C       -2.3402104649   -3.0543011084    1.4780343206
C       -2.3906015742   -3.8759582638    0.1837815683
H        0.3657583311   -0.0838728953    0.4771245525
H        0.2804470712   -1.7618853285   -0.0866875948
H        0.0328918129   -1.3721875065    1.6092406295
H       -1.9302873567    0.2136656332    0.3330564736
H       -1.9247853219   -1.2062991321   -0.6786643911
H       -3.1940321485   -1.3417317318    3.4445509970
H       -2.7106284433    0.1837334931    2.6860688822
H       -1.4865964223   -1.0118373708    3.1394742213
H       -4.8037928100   -1.8034775691    1.5330447368
H       -4.3263695583   -0.2552293636    0.8196610174
H       -4.2453345390   -1.7309878760   -0.1463457559
H       -1.3505802026   -3.1794092961    1.9339715915
H       -3.0541115022   -3.4776470310    2.1970963755
H       -2.1710007161   -4.9286424840    0.3923930087
H       -3.3763721869   -3.8363893101   -0.2903478253
H       -1.6540082097   -3.5280285816   -0.5476598400
23   
torsion grid (-120,)
C       -0.0395536546   -1.1176298629    0.5971434242
C       -1.5431460745   -0.9188857223    0.2904797063
C       -2.5394696030   -1.5889328172    1.2698857831
C       -2.3942232806   -0.9685109391    2.6725786931
C       -3.9682661928   -1.3124720036    0.7630309456
C       -2.3038661329   -3.1160866043    1.3850284801
C       -2.3016169410   -3.9054479713    0.0699887129
H        0.4691884795   -0.1632363200    0.7628618207
H        0.4768934864   -1.6228429774   -0.2249210426
H        0.1272541380   -1.7223891774    1.4928687167
H       -1.7736920119    0.1531546344    0.2738336381
H       -1.7603141778   -1.2770997616   -0.7215241802
H       -3.1061983390   -1.4186457874    3.3742169574
H       -2.5874106723    0.1103360609    2.6464149688
H       -1.3895758516   -1.1179974216    3.0820355973
H       -4.7155555067   -1.7707272704    1.4214175522
H       -4.1676369813   -0.2350973652    0.7318386628
H       -4.1255609955   -1.7039708906   -0.2472302015
H       -1.3521916345   -3.2935242637    1.9002214671
H       -3.0780536256   -3.5260302965    2.0470276729
H       -2.1648769430   -4.9741300568    0.2677591371
H       -3.2417715907   -3.7931973229   -0.4794521954
H       -1.4881696971   -3.5896736338   -0.5911306990
23   
torsion grid (-105,)
C        0.1025239935   -1.1741499646    0.6807982112
C       -1.3835011677   -0.9651856239    0.3115994379
C       -2.4222708475   -1.6292048676    1.2491639462
C       -2.2982338254   -1.0380504040    2.6665627906
C       -3.8293046700   -1.3101012972    0.7077486423
C       -2.2303679556   -3.1642386423    1.3444934337
C       -2.1707915082   -3.9282748967    0.0160001344
H        0.5426587784   -0.2734977116    1.1197652125
H        0.6978696903   -1.4083685005   -0.2079055844
H        0.2509848744   -1.9952732231    1.3870687650
H       -1.6024243732    0.1086998631    0.2727302242
H       -1.5606348246   -1.3347456399   -0.7043532751
H       -3.0355932837   -1.4847851305    3.3438773074
H       -2.4668049360    0.0452435854    2.6565650644
H       -1.3056759329   -1.2180238329    3.0932381694
H       -4.6055861401   -1.7575885993    1.3394064835
H       -4.0008554396   -0.2277759995    0.6850540531
H       -3.9685008950   -1.6852136518   -0.3115171558
H       -1.3171428995   -3.3788716202    1.9123089997
H       -3.0529866837   -3.5648663782    1.9512907017
H       -2.0958540030   -5.0056042805    0.1994422285
H       -3.0641802660   -3.7627046193   -0.5947725453
H       -1.2998481363   -3.6376995420   -0.5801788481
23   
torsion grid (-90,)
C        0.5909897046   -1.1928105772    1.1057817400
C       -0.8336012426   -0.9852480635    0.5579662480
C       -1.9651423537   -1.7520546150    1.2857489744
C       -2.0348052463   -1.3054555459    2.7587876258
C       -3.3003242660   -1.3977713210    0.6027755064
C       -1.7495559188   -3.2867121962    1.2562645245
C       -1.5107363903   -3.9176556600   -0.1210971896
H        0.8392914875   -0.4607340639    1.8808225059
H        1.3299540186   -1.0558741218    0.3085698182
H        0.7440897103   -2.1944978088    1.5165393473
H       -1.0750989660    0.0847750625    0.5762179808
H       -0.8569768371   -1.2726734790   -0.4994419409
H       -2.8520776421   -1.8132640600    3.2843549875
H       -2.2088193237   -0.2255868549    2.8348552422
H       -1.1060144189   -1.5334881325    3.2924784661
H       -4.1377220165   -1.9223080883    1.0776666608
H       -3.4985247643   -0.3219650881    0.6715844352
H       -3.2974545553   -1.6628598544   -0.4596840752
H       -0.9087721217   -3.5449740461    1.9111306686
H       -2.6311049261   -3.7537408878    1.7146726807
H       -1.4371125749   -5.0070335297   -0.0330045322
H       -2.3255320282   -3.7011548622   -0.8195542556
H       -0.5794632857   -3.5635579358   -0.5746697798
23   
torsion grid (-75,)
C        0.6452453169   -1.2529987660    1.0797057519
C       -0.7693183144   -1.0215382468    0.5286988844
C       -1.9155927353   -1.7867361676    1.2351557058
C       -2.0066626402   -1.3542255708    2.7113111175
C       -3.2386863621   -1.4172525254    0.5367746098
C       -1.7068257060   -3.3218522257    1.1961168597
C       -1.4832359087   -3.9467687433   -0.1865984030
H        0.8042533675   -0.7279283555    2.0271061325
H        1.3916771532   -0.8646977060    0.3777642296
H        0.8650100908   -2.3136630939    1.2332969874
H       -0.9962910103    0.0516802142    0.5685837677
H       -0.7838248159   -1.2864776517   -0.5352492972
H       -2.8512735599   -1.8439111209    3.2100171811
H       -2.1515140479   -0.2707208178    2.7965232354
H       -1.0995565116   -1.6163457541    3.2658361112
H       -4.0850816640   -1.9471960456    0.9892591877
H       -3.4348592617   -0.3421143610    0.6208369462
H       -3.2194143923   -1.6639874388   -0.5298541703
H       -0.8604190520   -3.5839173491    1.8422773483
H       -2.5857004620   -3.7889367492    1.6597325554
H       -1.3995111981   -5.0357679487   -0.1029525909
H       -2.3104016113   -3.7348727194   -0.8716812498
H       -0.5621996099   -3.5838981183   -0.6540060842
23   
torsion grid (-60,)
C        0.6899889373   -1.4505646693    0.9106261728
C       -0.7199883313   -1.1167231891    0.4075553920
C       -1.8933292470   -1.8354366877    1.1193932673
C       -1.9608131028   -1.4071060819    2.5981527985
C       -3.2042599703   -1.4062348257    0.4323299167
C       -1.7446318864   -3.3767896515    1.0717953057
C       -1.6013331689   -4.0053577992   -0.3199404738
H        0.8178721190   -1.1991350435    1.9682872226
H        1.4390385648   -0.8827867348    0.3480212173
H        0.9267519225   -2.5125164847    0.7893614333
H       -0.8826495151   -0.0346412478    0.4992618702
H       -0.7728668918   -1.3334831351   -0.6662687156
H       -2.8338609732   -1.8506278625    3.0908099780
H       -2.0437303904   -0.3177202262    2.6900164915
H       -1.0737959356   -1.7249364553    3.1556682153
H       -4.0687464727   -1.9069759502    0.8839740409
H       -3.3568906780   -0.3250914406    0.5295222522
H       -3.2004101489   -1.6413152839   -0.6369525315
H       -0.8807795557   -3.6675570719    1.6817795731
H       -2.6195594260   -3.8143554142    1.5706069601
H       -1.5272571290   -5.0953105112   -0.2397310560
H       -2.4606896934   -3.7831598035   -0.9605164403
H       -0.7019443180   -3.6543142472   -0.8361254881
23   
torsion grid (-45,)
C        0.7942295063   -1.7289312151    0.7117243609
C       -0.5954222480   -1.2637873639    0.2532445882
C       -1.8071095943   -1.9255969661    0.9569532788
C       -1.8471309361   -1.5209854398    2.4433660527
C       -3.0936342135   -1.4086652700    0.2846130351
C       -1.7418678105   -3.4711526192    0.8789278448
C       -1.6806558982   -4.0784347130   -0.5282620479
H        0.8710573135   -1.7874114044    1.8017880031
H        1.5716679882   -1.0455443997    0.3550979059
H        1.0314399536   -2.7251625444    0.3228441772
H       -0.6781232788   -0.1799293945    0.4087679044
H       -0.6814792859   -1.4135205962   -0.8296154550
H       -2.7428494378   -1.9246170476    2.9294038202
H       -1.8697936453   -0.4305964709    2.5546214580
H       -0.9796071134   -1.8967757990    2.9953437735
H       -3.9837774327   -1.8690724868    0.7293898202
H       -3.1843856772   -0.3229178037    0.4055388685
H       -3.1063578069   -1.6205248808   -0.7893077427
H       -0.8710978558   -3.8146808188    1.4506618112
H       -2.6191313183   -3.8748452937    1.4017924284
H       -1.6350544984   -5.1713372133   -0.4700583872
H       -2.5614989309   -3.8201317536   -1.1244203251
H       -0.7959626038   -3.7436635965   -1.0795738505
23   
torsion grid (-30,)
C        0.8557935562   -1.8559541209    0.6609319162
C       -0.5210929258   -1.3418698022    0.2015806512
C       -1.7541739706   -1.9706507734    0.8987544905
C       -1.7879921010   -1.5684817802    2.3857395600
C       -3.0232330849   -1.4157587400    0.2235558875
C       -1.7306091472   -3.5171170834    0.8138507198
C       -1.6868909648   -4.1186394988   -0.5965048358
H        0.8525154586   -2.1743895621    1.7074817627
H        1.6297988011   -1.0922641273    0.5392089296
H        1.1660243129   -2.7307465999    0.0785994791
H       -0.5750864377   -0.2585786083    0.3707900962
H       -0.6119243454   -1.4734956198   -0.8826681005
H       -2.6881331109   -1.9621069404    2.8717890884
H       -1.7974134919   -0.4780557818    2.4981596430
H       -0.9245641666   -1.9543284248    2.9372460717
H       -3.9276031077   -1.8498412965    0.6660992757
H       -3.0822969236   -0.3278641688    0.3447400697
H       -3.0396863584   -1.6268600746   -0.8504087351
H       -0.8676758010   -3.8865679421    1.3813323179
H       -2.6170504334   -3.9006646625    1.3364501044
H       -1.6626475372   -5.2124862816   -0.5436130533
H       -2.5644594915   -3.8402487680   -1.1884134325
H       -0.7973030274   -3.7988564821   -1.1488361136
23   
torsion grid (-15,)
C        0.7925185905   -1.6972799531    0.7422628648
C       -0.6086537227   -1.2600275189    0.2604978169
C       -1.8168891761   -1.9049644361    0.9858359320
C       -1.8492213032   -1.4587374831    2.4600544783
C       -3.1066361143   -1.4081569085    0.3044698483
C       -1.7517772569   -3.4522517677    0.9455482285
C       -1.6674380701   -4.0926921133   -0.4456638593
H        0.7608293369   -2.2105632889    1.7074215720
H        1.4727044848   -0.8462712337    0.8399595078
H        1.2522319364   -2.4019226851    0.0409799701
H       -0.7092775340   -0.1737410566    0.3773493841
H       -0.6990096906   -1.4458294455   -0.8152755581
H       -2.7215013982   -1.8794748140    2.9735560970
H       -1.9096841819   -0.3669479142    2.5385019071
H       -0.9586104839   -1.7840652791    3.0075989978
H       -3.9947848037   -1.8486493735    0.7726739079
H       -3.1930905855   -0.3184332262    0.3857793107
H       -3.1284490184   -1.6597251059   -0.7606897740
H       -0.8905862909   -3.7855954118    1.5373170192
H       -2.6372807069   -3.8425788507    1.4646266026
H       -1.6324803150   -5.1842289574   -0.3607610635
H       -2.5328491027   -3.8416351180   -1.0670605891
H       -0.7673361496   -3.7786066740   -0.9839887999
23   
torsion grid (0,)
C        0.9266236333   -1.1669141507    1.3194477041
C       -0.4905565788   -0.8057803902    0.8139610615
C       -1.6378071229   -1.7524520468    1.2481097714
C       -1.8022391384   -1.7101110618    2.7793630300
C       -2.9444060600   -1.2472098773    0.6060018079
C       -1.3723281105   -3.2195957665    0.8262555678
C       -1.0752191562   -3.4574078516   -0.6595440573
H        0.9327687485   -2.0703732591    1.9355104869
H        1.3558712068   -0.3656510987    1.9283873564
H        1.6164811250   -1.3480521936    0.4892794585
H       -0.7537098219    0.2027852841    1.1549202343
H       -0.4851228935   -0.7490107972   -0.2798275039
H       -2.6239606269   -2.3601569852    3.1019150729
H       -2.0263215009   -0.6931041578    3.1219994503
H       -0.8961501798   -2.0443652632    3.2956910482
H       -3.7911414463   -1.8878127300    0.8790967644
H       -3.1743426876   -0.2296715521    0.9424586027
H       -2.8795514247   -1.2239863603   -0.4866524152
H       -0.5378583674   -3.6163552539    1.4168802436
H       -2.2477954320   -3.8156757066    1.1159279194
H       -0.9412763141   -4.5269608651   -0.8544992923
H       -1.8886888370   -3.1079712350   -1.3033865426
H       -0.1575050060   -2.9510845537   -0.9756656619
23   
torsion grid (15,)
C        1.0235209972   -1.2294809070    1.3803182569
C       -0.3716705611   -0.8495012286    0.8352272813
C       -1.5425755379   -1.7784251483    1.2415930227
C       -1.7184792347   -1.7575918461    2.7721598061
C       -2.8312929409   -1.2349889302    0.5945370559
C       -1.3093377140   -3.2453874981    0.7990219989
C       -0.9633574238   -3.4652642805   -0.6788395998
H        1.0541231382   -2.2506324628    1.7707223759
H        1.3196026615   -0.5783111530    2.2091704621
H        1.7958315870   -1.1457326544    0.6099608184
H       -0.6233614532    0.1692598813    1.1537304699
H       -0.3358651798   -0.8105597079   -0.2590943848
H       -2.5536172256   -2.3978982401    3.0796541057
H       -1.9264312615   -0.7423088124    3.1299254834
H       -0.8205845468   -2.1160859786    3.2868313965
H       -3.6953754320   -1.8579231455    0.8536797186
H       -3.0396348661   -0.2157296320    0.9395998706
H       -2.7565344558   -1.2022603557   -0.4973866192
H       -0.5143894867   -3.6852775015    1.4129890527
H       -2.2161649898   -3.8142094454    1.0429848727
H       -0.8814947093   -4.5359132727   -0.8954382727
H       -1.7279274981   -3.0548993377   -1.3464010277
H       -0.0061938809   -3.0048502869   -0.9438705639
23   
torsion grid (30,)
C        0.7454570821   -1.0436154311    1.2201967854
C       -0.6844976141   -0.7738220540    0.7149725743
C       -1.7903959335   -1.7121055554    1.2578960323
C       -1.8785977547   -1.5844819027    2.7909633426
C       -3.1353854198   -1.2664451074    0.6518418411
C       -1.5243298738   -3.1993030026    0.9113155868
C       -1.2593776954   -3.5205565356   -0.5647289612
H        0.9105588921   -2.0998581101    1.4524500677
H        0.9498187978   -0.4932603565    2.1449497442
H        1.4946424086   -0.7346918707    0.4849642441
H       -0.9631082458    0.2604105750    0.9524850153
H       -0.6972406262   -0.8354810500   -0.3793570580
H       -2.6803336243   -2.2160813628    3.1913394019
H       -2.0881610400   -0.5501769189    3.0883724019
H       -0.9447205837   -1.8895687121    3.2749737014
H       -3.9556967197   -1.9049871141    1.0000158374
H       -3.3693705741   -0.2354612813    0.9411025011
H       -3.1216964763   -1.3044251131   -0.4424293343
H       -0.6780471756   -3.5625824562    1.5065054126
H       -2.3918640144   -3.7790152501    1.2528997747
H       -1.1521053547   -4.6015612077   -0.7055807033
H       -2.0771141433   -3.1867927589   -1.2116610229
H       -0.3373715684   -3.0518716543   -0.9233185082
23   
torsion grid (45,)
C        0.6200072216   -1.0176449428    1.0742551163
C       -0.8230152432   -0.7588214683    0.6167234172
C       -1.9124980976   -1.6719878185    1.2313694213
C       -1.9561075541   -1.4862479981    2.7604596327
C       -3.2750250015   -1.2466076867    0.6503408821
C       -1.6568907463   -3.1718439398    0.9361952714
C       -1.4653701977   -3.5561663772   -0.5361987630
H        0.8643416044   -2.0844169369    1.0820129569
H        0.7901537453   -0.6469243892    2.0907074050
H        1.3347027583   -0.5108496227    0.4178506719
H       -1.0853955004    0.2845189859    0.8348000166
H       -0.8728477480   -0.8525062345   -0.4747101336
H       -2.7631701635   -2.0818848068    3.2028701254
H       -2.1321184564   -0.4369302240    3.0253325971
H       -1.0190214627   -1.7990937455    3.2327196954
H       -4.0841651161   -1.8740791449    1.0421497268
H       -3.5017637188   -0.2070196319    0.9135613976
H       -3.2928361516   -1.3189779659   -0.4420813133
H       -0.7793867269   -3.5040111583    1.5038645733
H       -2.5028487265   -3.7397900701    1.3452140435
H       -1.3475554473   -4.6408113922   -0.6341049849
H       -2.3223237532   -3.2642596700   -1.1517340922
H       -0.5724120190   -3.0910269687   -0.9659323907
23   
torsion grid (60,)
C        0.4949963785   -1.0150708235    0.9663418116
C       -0.9611034633   -0.7430361292    0.5684147978
C       -2.0370165838   -1.6283748817    1.2454957315
C       -2.0523455524   -1.3776784696    2.7659097100
C       -3.4121780091   -1.2285627267    0.6763480745
C       -1.7798734894   -3.1379139995    1.0099260737
C       -1.6651261141   -3.5905209244   -0.4510742861
H        0.7981460924   -2.0405774656    0.7319017539
H        0.6628385877   -0.8565219869    2.0364046329
H        1.1700610036   -0.3420514084    0.4267800849
H       -1.1995705093    0.3058126317    0.7893284368
H       -1.0553084075   -0.8445067585   -0.5195732755
H       -2.8618853263   -1.9415252531    3.2437856972
H       -2.2087225320   -0.3156961673    2.9891531819
H       -1.1146245276   -1.6861707029    3.2393610434
H       -4.2113024536   -1.8433616582    1.1070142080
H       -3.6370707232   -0.1806228427    0.9062198906
H       -3.4514601474   -1.3405176861   -0.4120414249
H       -0.8664223641   -3.4285673519    1.5428291250
H       -2.5934139101   -3.6962514142    1.4917694291
H       -1.5112940293   -4.6738257900   -0.5031041273
H       -2.5697340676   -3.3617444634   -1.0234079824
H       -0.8201206936   -3.1161724458   -0.9605030710
23   
torsion grid (75,)
C        0.4249810640   -0.9833158185    0.9610732631
C       -1.0394948493   -0.7099621260    0.5897316025
C       -2.1019008318   -1.5914912739    1.2935207177
C       -2.1266230515   -1.2914801978    2.8048136233
C       -3.4835132297   -1.2363859429    0.7110299717
C       -1.8092431336   -3.1008662379    1.1060814889
C       -1.7271871337   -3.6026215838   -0.3410576366
H        0.7976904249   -1.9019573888    0.4960739624
H        0.5738882634   -1.0624953871    2.0419833125
H        1.0642634686   -0.1682534115    0.6039652590
H       -1.2758838238    0.3370166743    0.8212993549
H       -1.1541441996   -0.8053001210   -0.4965915482
H       -2.9260972123   -1.8565143687    3.2978176338
H       -2.3062322592   -0.2263968720    2.9925097883
H       -1.1856202795   -1.5645472056    3.2931568087
H       -4.2711634360   -1.8541810104    1.1583541310
H       -3.7297011553   -0.1869120671    0.9103401698
H       -3.5183959898   -1.3803769155   -0.3736068642
H       -0.8693266840   -3.3416115499    1.6176788364
H       -2.5888101369   -3.6660993001    1.6340401950
H       -1.5167970540   -4.6774557606   -0.3604176675
H       -2.6646364980   -3.4440421319   -0.8833422952
H       -0.9300193763   -3.1038379573   -0.9018125038
23   
torsion grid (90,)
C        0.3427172807   -0.8401749285    1.0665892500
C       -1.1337396494   -0.6309327464    0.6827686471
C       -2.1648638568   -1.5282760021    1.4130586774
C       -2.2122002300   -1.1730345472    2.9115538766
C       -3.5560380086   -1.2523241320    0.8108922612
C       -1.8072586989   -3.0295252623    1.2809474877
C       -1.7027161710   -3.5789581735   -0.1473337832
H        0.8227979935   -1.5955775962    0.4357912779
H        0.4713804125   -1.1329591703    2.1121085915
H        0.9102187182    0.0854163531    0.9201600063
H       -1.4131818967    0.4106753916    0.8871951075
H       -1.2454953126   -0.7577518499   -0.4000520434
H       -2.9802708644   -1.7634103668    3.4243584169
H       -2.4526668671   -0.1134599895    3.0574269651
H       -1.2594725781   -1.3723308035    3.4127625630
H       -4.3209934849   -1.8830575345    1.2790731214
H       -3.8452965076   -0.2065638195    0.9672548594
H       -3.5787017128   -1.4404975572   -0.2672259391
H       -0.8568928497   -3.2099006966    1.7981169034
H       -2.5607779120   -3.6093498729    1.8305365365
H       -1.4374369105   -4.6415782712   -0.1283429967
H       -2.6479638901   -3.4886033877   -0.6917252430
H       -0.9327403468   -3.0608111902   -0.7281487216
23   
torsion grid (105,)
C        0.4255423048   -0.9361722515    0.9848423595
C       -1.0492171138   -0.6939534662    0.5933369785
C       -2.1051774558   -1.5612443288    1.3244862550
C       -2.1288907214   -1.2130976480    2.8250727914
C       -3.4896256758   -1.2332554912    0.7327632726
C       -1.8045913768   -3.0739843009    1.1793845249
C       -1.6960707992   -3.6106357191   -0.2534264456
H        0.9627451613   -1.4976495136    0.2137866671
H        0.5303646304   -1.4798176864    1.9273930333
H        0.9600933909    0.0118283160    1.1046262610
H       -1.3077659099    0.3544814551    0.7869372081
H       -1.1659477306   -0.8276244479   -0.4876246894
H       -2.8990521084   -1.7938553344    3.3457883183
H       -2.3509336789   -0.1505218866    2.9782395442
H       -1.1720819162   -1.4279904160    3.3121433081
H       -4.2740858666   -1.8337302713    1.2082841324
H       -3.7378498482   -0.1770669504    0.8891835367
H       -3.5281579432   -1.4224934944   -0.3447483434
H       -0.8719213800   -3.3012206140    1.7098835086
H       -2.5904803543   -3.6285277108    1.7092952320
H       -1.4894149576   -4.6863046683   -0.2423829598
H       -2.6211896488   -3.4622556659   -0.8193417370
H       -0.8843392805   -3.1284545976   -0.8076778959
23   
torsion grid (120,)
C        0.3883102171   -0.7756482386    1.1615650953
C       -1.0847197668   -0.6151680239    0.7156802729
C       -2.1235265752   -1.5091478391    1.4385355615
C       -2.1797995557   -1.1441136817    2.9342447807
C       -3.5072076714   -1.2319043473    0.8193805406
C       -1.7800451918   -3.0151630030    1.3164105941
C       -1.5730986959   -3.5529418349   -0.1049953118
H        1.0288748325   -1.0904502632    0.3318675276
H        0.5068733709   -1.5212107574    1.9526537958
H        0.7980908578    0.1623797366    1.5480874925
H       -1.3972470894    0.4265756437    0.8563374488
H       -1.1625623792   -0.7975668753   -0.3614878664
H       -2.9245978748   -1.7551012017    3.4575014258
H       -2.4548349310   -0.0917378446    3.0712743165
H       -1.2161496948   -1.3045572292    3.4291768976
H       -4.2816910232   -1.8452712074    1.2946366235
H       -3.7877959658   -0.1804674618    0.9505639173
H       -3.5232794147   -1.4435475165   -0.2546728212
H       -0.8781627447   -3.2253058225    1.9038131730
H       -2.5855844549   -3.5833052289    1.8001281912
H       -1.3736814719   -4.6297266161   -0.0793011111
H       -2.4544836577   -3.3995175661   -0.7358669651
H       -0.7209096863   -3.0753823682   -0.5991578931
23   
torsion grid (135,)
C        0.2901283268   -0.6431281877    1.2868235865
C       -1.1802330089   -0.5717633985    0.8170931645
C       -2.1863562235   -1.4752656044    1.5724808416
C       -2.2430435373   -1.0657121225    3.0567043256
C       -3.5808485949   -1.2606410032    0.9526887049
C       -1.8018729397   -2.9748309035    1.4964496314
C       -1.5469649435   -3.5436687188    0.0951570744
H        0.9774724939   -0.7079835039    0.4375289714
H        0.4819482319   -1.5292249661    1.8993807535
H        0.5739563762    0.2262194983    1.8870181106
H       -1.5371148785    0.4628281454    0.8887916194
H       -1.2334271686   -0.8232127711   -0.2478489805
H       -2.9619995951   -1.6839741647    3.6070341510
H       -2.5514077985   -0.0190683672    3.1639245064
H       -1.2687219884   -1.1789159045    3.5440202242
H       -4.3346076665   -1.8784839915    1.4546404192
H       -3.8912633917   -0.2136963962    1.0470311229
H       -3.5962818224   -1.5120640956   -0.1129253750
H       -0.9117834975   -3.1507596934    2.1122500877
H       -2.6064330479   -3.5486331922    1.9748097016
H       -1.3453432222   -4.6188716963    0.1516315087
H       -2.4077205777   -3.4075141107   -0.5675290551
H       -0.6806171744   -3.0741148765   -0.3816912291
23   
torsion grid (150,)
C       -0.0816911025   -0.5138125996    1.0893794379
C       -1.5728860824   -0.5575922642    0.7062756901
C       -2.4866807579   -1.4242597891    1.6075536350
C       -2.4595749518   -0.8853958409    3.0508442160
C       -3.9275709335   -1.3165051133    1.0717139035
C       -2.0467933229   -2.9102254276    1.6384963621
C       -1.8694840265   -3.5994380295    0.2799084344
H        0.5461463268   -0.3674169527    0.2044700391
H        0.2482614020   -1.4554193432    1.5398815849
H        0.1392224843    0.2830941524    1.8056087343
H       -1.9738022267    0.4636683526    0.6911967045
H       -1.6677303868   -0.9232960382   -0.3225502081
H       -3.1278960052   -1.4650447464    3.6984291420
H       -2.7848241468    0.1610796686    3.0864283981
H       -1.4539345913   -0.9386389415    3.4813536562
H       -4.6177496428   -1.9211782775    1.6716327409
H       -4.2779989730   -0.2785178307    1.1052136296
H       -4.0021467214   -1.6538516008    0.0326135733
H       -1.1095959117   -2.9972517270    2.2010627986
H       -2.7918905773   -3.4636710174    2.2249121211
H       -1.6242518668   -4.6579049418    0.4192745769
H       -2.7794228059   -3.5525105833   -0.3270556789
H       -1.0574355540   -3.1503911060   -0.3008982390
23   
torsion grid (165,)
C       -0.3135508424   -0.5556392864    0.8836660699
C       -1.8182744180   -0.6007482597    0.5802204555
C       -2.6959859920   -1.4017254155    1.5736051689
C       -2.6069413324   -0.7759487402    2.9789316545
C       -4.1582287629   -1.3167297586    1.0944688032
C       -2.2592347968   -2.8849341349    1.6792861787
C       -2.1721198033   -3.6677660069    0.3632326888
H        0.2445505033   -0.2063619629    0.0084170099
H        0.0803154685   -1.5477434486    1.1275300745
H       -0.0809213412    0.1074177783    1.7225613034
H       -2.2048128780    0.4255237526    0.5305633537
H       -1.9650456626   -1.0191190257   -0.4226268582
H       -3.2700528154   -1.2958313838    3.6802634814
H       -2.9028983218    0.2796336103    2.9600102925
H       -1.5907573335   -0.8326153182    3.3829446093
H       -4.8237362600   -1.8837651447    1.7559273237
H       -4.5038778967   -0.2765934639    1.0854595108
H       -4.2782602021   -1.7102763820    0.0797432006
H       -1.2875321405   -2.9365769560    2.1849319855
H       -2.9658593944   -3.3925032821    2.3490386487
H       -1.9083568178   -4.7127903858    0.5588641500
H       -3.1233363114   -3.6673764791   -0.1786456770
H       -1.4077946821   -3.2582061508   -0.3049827055
23   
torsion grid (180,)
C       -0.4356852235   -0.6038658049    0.7996310744
C       -1.9491185252   -0.6177999306    0.5506918535
C       -2.8115292350   -1.3730131743    1.5926615554
C       -2.7069930929   -0.6859168473    2.9680908505
C       -4.2809831129   -1.3103535794    1.1324264798
C       -2.3654395330   -2.8474927490    1.7568652807
C       -2.3397031521   -3.6982606486    0.4808482024
H        0.0754462122   -0.0460614923    0.0074936349
H       -0.0142785897   -1.6142914735    0.8097444557
H       -0.1810461769   -0.1277953561    1.7518176232
H       -2.3104872708    0.4179461793    0.5014540478
H       -2.1403387239   -1.0448960853   -0.4412150079
H       -3.3730842845   -1.1672456374    3.6935388605
H       -2.9917327447    0.3709024540    2.9038693698
H       -1.6910025089   -0.7363319063    3.3729061044
H       -4.9346689304   -1.8544435419    1.8243164926
H       -4.6300978219   -0.2721114901    1.0905997654
H       -4.4147851337   -1.7409957645    0.1347713475
H       -1.3689783126   -2.8666234893    2.2146512781
H       -3.0351505391   -3.3217959859    2.4864293942
H       -2.0373090291   -4.7250146521    0.7137768552
H       -3.3226518346   -3.7485176526    0.0017965477
H       -1.6299532925   -3.3082759272   -0.2558567993
