17   
torsion grid (-165,)
C        5.6942280788    0.4248537709    0.4007041762
C        5.0530997987    1.5516922965    0.8366342823
C        3.6239836719   -0.2208038268   -0.0867695418
C        1.1747200301   -0.3530778938   -0.7541703856
C        2.9047903442   -1.8693673035   -1.8276485915
C        2.4937242591   -1.1116907485   -0.5543262520
N        4.8845411775   -0.5622185809   -0.1166009916
S        3.3467289665    1.3834265325    0.5910101710
H        6.7673033004    0.2683844571    0.4340390702
H        5.4786015471    2.4485524382    1.2673800234
H        0.8393322447    0.1394507207    0.1647538370
H        0.3875032209   -1.0490426651   -1.0596843923
H        1.2719231738    0.4090193600   -1.5349342755
H        2.1206071545   -2.5792235428   -2.1112812635
H        3.8375704159   -2.4150942248   -1.6735784296
H        3.0534615439   -1.1713561035   -2.6586958473
H        2.3389013849   -1.8521203969    0.2429465170
17   
torsion grid (-150,)
C        5.6774227917    0.4984480755    0.2554017821
C        5.0339971100    1.4924032235    0.9388389655
C        3.6016104775   -0.2130282662   -0.1007049739
C        1.1756904353   -0.3116930820   -0.8324828183
C        2.8849152790   -1.9371200685   -1.7739584040
C        2.4649390614   -1.1013439053   -0.5560439560
N        4.8654370865   -0.4534266521   -0.3234455523
S        3.3211519851    1.2430357920    0.8573800980
H        6.7533543585    0.4182207568    0.1417004065
H        5.4595113205    2.3398330596    1.4602396845
H        0.8245201830    0.2285095943    0.0529954784
H        0.3774654542   -0.9951871414   -1.1381644684
H        1.3278516222    0.4161208229   -1.6365077985
H        2.0768857079   -2.6224119175   -2.0504717745
H        3.7850927321   -2.5174555339   -1.5633129169
H        3.0974646875   -1.2896763760   -2.6309998286
H        2.2597327805   -1.7927233454    0.2738823120
17   
torsion grid (-135,)
C        5.6511554510    0.5951968306    0.1464414850
C        5.0377149133    1.4356928576    1.0324507528
C        3.5926000395   -0.2120194058   -0.0802780297
C        1.1995649795   -0.2742762579   -0.8938663905
C        2.8896377146   -1.9845795807   -1.7099010740
C        2.4534558101   -1.0940090011   -0.5392427753
N        4.8321515171   -0.3267492955   -0.4717700615
S        3.3437512652    1.0742247321    1.1045112637
H        6.7089492466    0.6098733171   -0.0938756456
H        5.4732767755    2.2308515795    1.6233015515
H        0.8394825151    0.3152503435   -0.0446283559
H        0.3893056620   -0.9428570981   -1.2016698613
H        1.4083845830    0.4142537163   -1.7194378157
H        2.0693331849   -2.6534893679   -1.9901893142
H        3.7623709581   -2.5863307737   -1.4478746229
H        3.1555906659   -1.3772970464   -2.5805411411
H        2.1951808444   -1.7460447294    0.3070811756
17   
torsion grid (-120,)
C        5.6054606601    0.6894545315    0.0470741124
C        5.0532772636    1.3601279659    1.1019883902
C        3.5845998749   -0.2283732994   -0.0643233897
C        1.2295362856   -0.2408722905   -0.9573639251
C        2.8846830866   -2.0386043934   -1.6547589829
C        2.4386148765   -1.0964151276   -0.5295976475
N        4.7737667604   -0.2012956243   -0.6003721202
S        3.4036509345    0.8668975619    1.3090722130
H        6.6259136850    0.8105858357   -0.3005710471
H        5.5105803451    2.0966099840    1.7496890512
H        0.8671870853    0.3907736525   -0.1403498034
H        0.4051344848   -0.8871628000   -1.2757640214
H        1.4984711028    0.4107459329   -1.7953977118
H        2.0534949797   -2.6917996972   -1.9398511256
H        3.7284895352   -2.6588824934   -1.3429921389
H        3.1998469785   -1.4709189463   -2.5347688099
H        2.1251433251   -1.7077021892    0.3274392156
17   
torsion grid (-105,)
C        5.5396698408    0.8110359909   -0.0190866282
C        5.0720682987    1.2953631154    1.1705782500
C        3.5814737606   -0.2371628482   -0.0411228691
C        1.2679043904   -0.2113536215   -1.0142714413
C        2.8868542637   -2.0820774496   -1.5946779011
C        2.4307501495   -1.0931891733   -0.5140453092
N        4.6968829844   -0.0501178498   -0.6914905038
S        3.4932684710    0.6484731645    1.4820985398
H        6.5054210183    1.0519466732   -0.4505442026
H        5.5561585053    1.9708821884    1.8636201956
H        0.9177710502    0.4744396388   -0.2367319551
H        0.4241079168   -0.8378133950   -1.3221582575
H        1.5856635472    0.3851234740   -1.8758039241
H        2.0463838911   -2.7164351771   -1.8948484774
H        3.6951426818   -2.7220259132   -1.2304175244
H        3.2561109887   -1.5505359173   -2.4755053862
H        2.0682143190   -1.6652473811    0.3497383782
17   
torsion grid (-90,)
C        5.4644532218    0.9201295031   -0.0716396668
C        5.1130830463    1.2017795385    1.2197118355
C        3.5757043108   -0.2468496804   -0.0324240212
C        1.3050372156   -0.1854443062   -1.0799324746
C        2.8792954593   -2.1305004612   -1.5371217671
C        2.4169344703   -1.0888889946   -0.5081206464
N        4.5956385462    0.1050132701   -0.7667595220
S        3.6181997227    0.4095504210    1.6010533805
H        6.3601428818    1.2836944986   -0.5641465375
H        5.6394796056    1.8046804855    1.9478922485
H        0.9590440945    0.5410074331   -0.3380173464
H        0.4478710851   -0.7911350330   -1.3929113514
H        1.6746058801    0.3657028132   -1.9505176819
H        2.0302328734   -2.7449803876   -1.8541808225
H        3.6460039580   -2.7878718251   -1.1166429952
H        3.3044833580   -1.6400764479   -2.4163548466
H        2.0078761100   -1.6157388577    0.3628500930
17   
torsion grid (-75,)
C        5.3817495125    1.0440740509   -0.1018419005
C        5.1835297678    1.1047551086    1.2506437040
C        3.5628488395   -0.2253694831   -0.0264291631
C        1.3312361973   -0.1629111838   -1.1475771392
C        2.8760052154   -2.1616551821   -1.4614500239
C        2.3994766336   -1.0633009005   -0.4970901909
N        4.4675356392    0.2948477574   -0.8111844145
S        3.7798753623    0.1775321914    1.6708316982
H        6.1926535795    1.5328706326   -0.6315271268
H        5.7703727159    1.6218698414    1.9982736920
H        0.9806889717    0.6046689968   -0.4502950925
H        0.4696243220   -0.7618406505   -1.4615317871
H        1.7447454248    0.3388273473   -2.0275963856
H        2.0276066886   -2.7744063024   -1.7841111027
H        3.6120354326   -2.8151001993   -0.9830324965
H        3.3423284717   -1.7171272428   -2.3445265651
H        1.9520720235   -1.5417413413    0.3824707298
17   
torsion grid (-60,)
C        5.2933061514    1.1469090265   -0.1073882968
C        5.2680354472    0.9708200231    1.2495527628
C        3.5327353541   -0.2024583007   -0.0290484104
C        1.3436857738   -0.1644192118   -1.2397917452
C        2.8710096978   -2.1942240920   -1.3885026385
C        2.3700257469   -1.0408932037   -0.4999825095
N        4.3152003001    0.4844872588   -0.8173570074
S        3.9537688730   -0.0782278755    1.6718534283
H        6.0145735892    1.7582636112   -0.6395025841
H        5.9286682573    1.3874768655    1.9983100994
H        0.9734933946    0.6400107318   -0.5963917127
H        0.4894662237   -0.7700726952   -1.5606971463
H        1.8009008849    0.2901122829   -2.1230738136
H        2.0291069854   -2.8120805977   -1.7186982323
H        3.5758951427   -2.8334664533   -0.8474612057
H        3.3798722771   -1.7974915919   -2.2715402217
H        1.8850836392   -1.4713169352    0.3842714246
17   
torsion grid (-45,)
C        5.2206864960    1.2580881690   -0.0741736425
C        5.3727503249    0.8564011731    1.2248165064
C        3.5200423031   -0.1674262349   -0.0178410932
C        1.3737185067   -0.1537840517   -1.3127742257
C        2.8684025369   -2.2106757511   -1.2985568268
C        2.3551690332   -1.0028004827   -0.4893401102
N        4.1778459784    0.6777571487   -0.7644686503
S        4.1491040092   -0.3075784170    1.6182528728
H        5.8501445135    1.9855789107   -0.5757807101
H        6.1081299028    1.1776478776    1.9505949100
H        0.9911936421    0.6876303201   -0.7269426146
H        0.5246722248   -0.7661282718   -1.6342926892
H        1.8696877997    0.2501457877   -2.1990634282
H        2.0295005927   -2.8386536494   -1.6172766097
H        3.5519429152   -2.8260937817   -0.7050191097
H        3.4036277671   -1.8685023528   -2.1895154362
H        1.8325178527   -1.3824582229    0.3968288845
17   
torsion grid (-30,)
C        5.1263776871    1.3675206139   -0.0171874430
C        5.4391883861    0.7766270154    1.1756293206
C        3.5070081657   -0.1522890308   -0.0226143881
C        1.4032611104   -0.1537050984   -1.3902867912
C        2.8437048205   -2.2398096448   -1.2321770968
C        2.3379607989   -0.9812195354   -0.4967068708
N        4.0390836537    0.8399824235   -0.6823677004
S        4.3208685394   -0.5090439389    1.4986607917
H        5.6620195808    2.2032588986   -0.4549124494
H        6.2349914024    1.0249558625    1.8654785548
H        1.0245102159    0.7250348091   -0.8602836987
H        0.5509146254   -0.7647894587   -1.7049997235
H        1.9316339032    0.1956807683   -2.2807993412
H        1.9978755920   -2.8602781269   -1.5469340408
H        3.4928811292   -2.8449377505   -0.5916845967
H        3.4129940714   -1.9551854271   -2.1228554221
H        1.7789554244   -1.3089756329    0.3884971110
17   
torsion grid (-15,)
C        5.0448028716    1.4633431765    0.0584703934
C        5.5117723380    0.7227539177    1.1080477233
C        3.5187126131   -0.1484596135   -0.0352212520
C        1.4473691475   -0.1503856862   -1.4512858156
C        2.8091182954   -2.2744770599   -1.1686511718
C        2.3373722427   -0.9647743799   -0.5034928806
N        3.9240505507    0.9675524703   -0.5758611874
S        4.5083596448   -0.6747016530    1.3279442917
H        5.4858585088    2.3903801250   -0.2921554890
H        6.3622619878    0.9173240119    1.7482054129
H        1.0967931083    0.7690917488   -0.9750324960
H        0.5774078930   -0.7466847188   -1.7453601594
H        1.9978108578    0.1328655284   -2.3522436834
H        1.9457148589   -2.8736198115   -1.4763014194
H        3.4175311099   -2.8783274460   -0.4884188073
H        3.4097429019   -2.0552780371   -2.0576142486
H        1.7482247226   -1.2331024849    0.3830291546
17   
torsion grid (0,)
C        4.9619108440    1.5459357163    0.1555832383
C        5.5727887935    0.6927291807    1.0309538005
C        3.5341708108   -0.1443040377   -0.0582554628
C        1.4919008915   -0.1552425064   -1.5152609538
C        2.7738420884   -2.3081870241   -1.1067426241
C        2.3415585372   -0.9515967666   -0.5168581718
N        3.8173827286    1.0679013925   -0.4491291246
S        4.6863697785   -0.7954694336    1.1113425182
H        5.3110315718    2.5445411202   -0.0847836562
H        6.4712769965    0.8497264546    1.6133135909
H        1.1670753192    0.7974095983   -1.0905575698
H        0.6074362126   -0.7377148582   -1.7933270096
H        2.0629839579    0.0651548753   -2.4217606300
H        1.8933258229   -2.8840005697   -1.4096036327
H        3.3357547625   -2.9085105870   -0.3844079946
H        3.4066656253   -2.1594405278   -1.9880271385
H        1.7276870164   -1.1558034794    0.3710462701
17   
torsion grid (15,)
C        4.8671998816    1.6147815391    0.2668426252
C        5.6135792704    0.6879857632    0.9391328071
C        3.5332355906   -0.1287919275   -0.0852087707
C        1.5259297643   -0.1649338208   -1.5889047047
C        2.7336883386   -2.3305628591   -1.0429747858
C        2.3348066646   -0.9338152429   -0.5354640214
N        3.7019440324    1.1468821232   -0.3037853700
S        4.8355306523   -0.8588464216    0.8582850334
H        5.1293284427    2.6615806939    0.1552683250
H        6.5559559920    0.8225054677    1.4538406249
H        1.2241227445    0.8169412911   -1.2189898473
H        0.6295232121   -0.7347126877   -1.8548226351
H        2.1199100218   -0.0101209428   -2.4951424011
H        1.8411511301   -2.8895093838   -1.3413638765
H        3.2496405431   -2.9164839117   -0.2753425712
H        3.3956946599   -2.2530743659   -1.9118563812
H        1.6969452706   -1.0720351079    0.3490922634
17   
torsion grid (30,)
C        4.8013485879    1.6356852243    0.4025322665
C        5.6699171485    0.6714649512    0.8333214477
C        3.5372539242   -0.1237745496   -0.0937136804
C        1.5758913004   -0.1734209977   -1.6528453988
C        2.6964985474   -2.3500106826   -0.9767032354
C        2.3332132591   -0.9214299243   -0.5448799043
N        3.6085806674    1.1799741089   -0.1159181837
S        4.9750746193   -0.8950871018    0.5789557469
H        4.9901668433    2.7033769833    0.4396933340
H        6.6556449139    0.7918977414    1.2632836838
H        1.3005250909    0.8324640854   -1.3308071245
H        0.6669143658   -0.7229790668   -1.9190860531
H        2.1979532515   -0.0807578506   -2.5493600619
H        1.7925875850   -2.8919603792   -1.2714859570
H        3.1704142690   -2.9173960174   -0.1687441719
H        3.3802163111   -2.3396235901   -1.8322017063
H        1.6677015515   -0.9959594755    0.3271107500
17   
torsion grid (45,)
C        4.7413603184    1.6419298011    0.5501497368
C        5.7120356804    0.6913479170    0.7103759706
C        3.5286646319   -0.1107151599   -0.0797874877
C        1.6391190129   -0.1804164294   -1.7182853048
C        2.6613191692   -2.3570603285   -0.9002599783
C        2.3268849135   -0.9024324783   -0.5464853751
N        3.5216724812    1.1826749183    0.1051284932
S        5.0801877769   -0.8639856214    0.2844144360
H        4.8715612332    2.7013743280    0.7444005201
H        6.7349473578    0.8175908614    1.0399591742
H        1.3985871897    0.8505993641   -1.4518950414
H        0.7153360598   -0.7015385842   -1.9910954773
H        2.2946285620   -0.1618004726   -2.5959361180
H        1.7516626917   -2.8857253170   -1.2008144939
H        3.0920273599   -2.8978431259   -0.0509061386
H        3.3695901734   -2.4090757283   -1.7344267814
H        1.6249509492   -0.9131479835    0.2986819109
17   
torsion grid (60,)
C        4.7017558916    1.6125559097    0.6933104871
C        5.7381868297    0.7279390924    0.5695539983
C        3.5174576323   -0.1094821981   -0.0603707905
C        1.7085023157   -0.1910086257   -1.7794847498
C        2.6170070549   -2.3642073112   -0.8250954303
C        2.3160021778   -0.8869705923   -0.5465651697
N        3.4608445450    1.1347174451    0.3351116290
S        5.1430738790   -0.7866646445   -0.0240104370
H        4.7963560232    2.6338600314    1.0470084338
H        6.7865703728    0.8781341372    0.7913408353
H        1.4925395766    0.8574760696   -1.5624255079
H        0.7789682065   -0.6888360239   -2.0759177528
H        2.4030633703   -0.2309761369   -2.6261308532
H        1.7026614482   -2.8791957518   -1.1350245001
H        3.0054398338   -2.8751668399    0.0618109622
H        3.3482549284   -2.4767391894   -1.6336430289
H        1.5787205411   -0.8321800442    0.2644007475
17   
torsion grid (75,)
C        4.6787315976    1.5464740800    0.8469374314
C        5.7373658112    0.7730939055    0.4567168907
C        3.5041920116   -0.1148706192   -0.0447429122
C        1.7701061897   -0.2092711345   -1.8363152812
C        2.5687903007   -2.3692789244   -0.7577611387
C        2.3013859751   -0.8732589651   -0.5502820046
N        3.4292594337    1.0415228505    0.5584110873
S        5.1556588138   -0.6688495087   -0.3087719550
H        4.7615161545    2.5003464568    1.3571522596
H        6.7955360900    0.9599183799    0.5842862813
H        1.5596215936    0.8495141540   -1.6651628186
H        0.8479845090   -0.7009106414   -2.1648114013
H        2.5055452525   -0.2874787531   -2.6448459461
H        1.6477078659   -2.8755362691   -1.0625482253
H        2.9316231372   -2.8456712748    0.1582745913
H        3.3104904454   -2.5375016028   -1.5472023072
H        1.5371860251   -0.7567437214    0.2267999762
17   
torsion grid (90,)
C        4.6858639803    1.4685501639    0.9716183240
C        5.7318143401    0.8314604532    0.3636981153
C        3.5002364437   -0.1017494533   -0.0592057010
C        1.8119488773   -0.2459631975   -1.8988928466
C        2.5363050855   -2.3620315568   -0.6913611517
C        2.2939643388   -0.8511282768   -0.5653491086
N        3.4359197428    0.9385978671    0.7276226021
S        5.1396823082   -0.5079959934   -0.5644284302
H        4.7777485967    2.3349347308    1.6180172778
H        6.7881194438    1.0599784773    0.4183409859
H        1.6229674131    0.8259453101   -1.7930965476
H        0.8853845847   -0.7316826666   -2.2234938626
H        2.5630772454   -0.3856641502   -2.6841820748
H        1.6125805323   -2.8672380560   -0.9908247897
H        2.8721065975   -2.7938804154    0.2562689131
H        3.2928269017   -2.5837468120   -1.4529202376
H        1.5176567401   -0.6775086365    0.1874372087
17   
torsion grid (105,)
C        4.7077538190    1.3776030167    1.0818059048
C        5.7186909887    0.8970052210    0.2972824806
C        3.4939640745   -0.0674672210   -0.0903436417
C        1.8364859938   -0.2813765355   -1.9656409739
C        2.5130193143   -2.3357208870   -0.6282174779
C        2.2856842977   -0.8154065713   -0.5920578519
N        3.4608270028    0.8301448128    0.8574362490
S        5.0975933626   -0.3074249133   -0.7849003571
H        4.8234411914    2.1364904403    1.8483029284
H        6.7658143227    1.1700294509    0.2992312709
H        1.6579292783    0.7972223014   -1.9270648284
H        0.9100444755   -0.7742361557   -2.2792548105
H        2.5974688110   -0.4734073411   -2.7299687414
H        1.5888371923   -2.8485690915   -0.9138416448
H        2.8286938146   -2.7129880744    0.3490953167
H        3.2822465167   -2.6061206097   -1.3603827594
H        1.5007561165   -0.5929030484    0.1380523646
17   
torsion grid (120,)
C        4.7429704777    1.2664393527    1.1803069349
C        5.7015267449    0.9617370614    0.2549134627
C        3.4839843161   -0.0262472796   -0.1166056007
C        1.8604344430   -0.3181702587   -2.0260783984
C        2.4958689826   -2.2999736382   -0.5642589294
C        2.2771597661   -0.7768857566   -0.6175087304
N        3.4997564112    0.7067831802    0.9638942947
S        5.0322892064   -0.0786285050   -0.9606705736
H        4.8950877534    1.9017730734    2.0463407579
H        6.7343077201    1.2827836523    0.2186038996
H        1.6947416339    0.7629036722   -2.0559914103
H        0.9339351174   -0.8179410603   -2.3275984719
H        2.6294535834   -0.5638981787   -2.7668472600
H        1.5753607209   -2.8242013170   -0.8419527408
H        2.7858992271   -2.6208317626    0.4406845940
H        3.2828578434   -2.6108284453   -1.2602305376
H        1.4805162471   -0.5147698586    0.0861539870
17   
torsion grid (135,)
C        4.7861270012    1.1426425935    1.2492724418
C        5.6754210942    1.0318193862    0.2169744677
C        3.4692931926    0.0147918948   -0.1397370532
C        1.8840232844   -0.3563855636   -2.0794543870
C        2.4771335481   -2.2597123649   -0.5003905633
C        2.2647188152   -0.7396893559   -0.6407475846
N        3.5492892767    0.5672236342    1.0407985127
S        4.9425484615    0.1692953682   -1.0968869102
H        4.9863968155    1.6430851326    2.1907118847
H        6.6881410937    1.4076192022    0.1523667722
H        1.7276105291    0.7222296777   -2.1756998628
H        0.9608123666   -0.8660750405   -2.3734158414
H        2.6641961575   -0.6505570379   -2.7907272283
H        1.5645345489   -2.7974775821   -0.7790038889
H        2.7337747903   -2.5245763859    0.5294057520
H        3.2867886563   -2.6038993566   -1.1532358111
H        1.4524308016   -0.4438293354    0.0312486975
17   
torsion grid (150,)
C        5.5608945514    0.3302886497    0.8273246475
C        5.1540320807    1.5797682749    0.4487164722
C        3.6159458035   -0.2623589120   -0.0670362749
C        1.1367192695   -0.4975138025   -0.5614916078
C        2.8783928100   -1.6676459932   -1.9954976972
C        2.5206823772   -1.1608896080   -0.5836731713
N        4.6915164713   -0.6985548132    0.5319270697
S        3.6007161309    1.4826269550   -0.3149193115
H        6.4939382062    0.1080106621    1.3342512479
H        5.6600732406    2.5265419353    0.5846667650
H        0.8775353414   -0.1419160938    0.4403981927
H        0.3721447203   -1.2133521308   -0.8792349263
H        1.0909346720    0.3558530473   -1.2479369361
H        2.1287663739   -2.3871891970   -2.3421816116
H        3.8561196541   -2.1570898486   -1.9954506533
H        2.9100996003   -0.8373473115   -2.7096610791
H        2.5134054285   -2.0220455018    0.0933391076
17   
torsion grid (165,)
C        5.6220987378    0.3278032313    0.6906260717
C        5.1105944952    1.5898281401    0.5592354555
C        3.6124336702   -0.2555697112   -0.0538353938
C        1.1398899248   -0.4544959022   -0.6169568462
C        2.8972684235   -1.7255645289   -1.9367250324
C        2.5061572036   -1.1490144427   -0.5613231601
N        4.7753755491   -0.7012366992    0.3410455471
S        3.4825309362    1.5010097617   -0.0271670108
H        6.6210267123    0.0967654400    1.0453438010
H        5.5836332009    2.5381403990    0.7779128578
H        0.8477359016   -0.0542422093    0.3590143572
H        0.3715203494   -1.1659444516   -0.9345496667
H        1.1406192738    0.3702937060   -1.3388652340
H        2.1395017126   -2.4385678644   -2.2792628751
H        3.8606221055   -2.2383575984   -1.8803382108
H        2.9761090810   -0.9261687803   -2.6819929745
H        2.4497482411   -1.9821536207    0.1490644048
17   
torsion grid (180,)
C        5.6687309925    0.3684638588    0.5360549377
C        5.0730856155    1.5906400937    0.6892941379
C        3.6189424440   -0.2358944898   -0.0720547640
C        1.1537587175   -0.4011926650   -0.6821010321
C        2.9002990849   -1.7960412547   -1.8844178548
C        2.4981489267   -1.1281116466   -0.5562436039
N        4.8458793106   -0.6486206356    0.1062655574
S        3.3943552541    1.4758950959    0.2786182258
H        6.7162110131    0.1600153144    0.7269642210
H        5.5160203874    2.5239645194    1.0111320816
H        0.8369530057    0.0413188234    0.2680682684
H        0.3773893427   -1.1052655847   -0.9963923425
H        1.2016034284    0.3956888039   -1.4326960265
H        2.1335695250   -2.5142802854   -2.1941264959
H        3.8529796329   -2.3198709606   -1.7809319277
H        3.0059030121   -1.0453238775   -2.6755180257
H        2.3936430317   -1.9177769587    0.1990659097
