12   
torsion grid (-165,)
C        1.8683741016   -1.5720175105    0.5739872714
C       -0.5125356713   -2.6293580430   -2.2493887279
N        1.3047767854   -4.2001399463   -1.1427497566
N        0.9701988865   -1.5359519608   -0.3249584822
O       -0.7320659993   -3.3639453676    0.3392847519
S        0.2719968851   -3.1325698908   -0.7223630949
H        2.3076338209   -0.6272873225    0.9017824637
H        2.2497731405   -2.4889857398    1.0431588320
H       -1.1399356229   -1.7681790350   -2.0223918540
H        0.2613767983   -2.3780582175   -2.9741730333
H       -1.1053702155   -3.4785704935   -2.5896749341
H        1.6141918782   -4.7478793552   -0.3372553061
12   
torsion grid (-150,)
C        1.8852000457   -1.5722882216    0.5218090539
C       -0.4816587418   -2.6178724729   -2.2426219950
N        1.3259969348   -4.1630604476   -1.0453494245
N        0.8408362779   -1.5282754517   -0.2017356668
O       -0.8304824150   -3.4200276181    0.3064857734
S        0.2298951941   -3.1358542678   -0.6835934754
H        2.2795629517   -0.6340302016    0.9176698053
H        2.4342612636   -2.4943606389    0.7573585949
H       -1.1433793175   -1.7784439544   -2.0323825383
H        0.3238779275   -2.3318796692   -2.9191129547
H       -1.0316022886   -3.4744058510   -2.6331984379
H        1.5259069553   -4.7724440878   -0.2500706053
12   
torsion grid (-135,)
C        1.8869506314   -1.5688219525    0.4637558764
C       -0.4419577109   -2.6021986554   -2.2255465530
N        1.3286119590   -4.1430411391   -0.9664516447
N        0.7304526619   -1.5527741633   -0.0648853697
O       -0.9222287151   -3.4926411308    0.2757362886
S        0.1856762660   -3.1530732949   -0.6402465992
H        2.2676182668   -0.6440900753    0.9023233806
H        2.5323698517   -2.4580585223    0.4863370332
H       -1.1081405106   -1.7606874841   -2.0375386243
H        0.3994808729   -2.3155151805   -2.8562660859
H       -0.9799467674   -3.4473761267   -2.6562296461
H        1.4795279819   -4.7846651578   -0.1857299262
12   
torsion grid (-120,)
C        1.8775854086   -1.5612658115    0.3955865569
C       -0.3943701217   -2.5809248167   -2.1971664441
N        1.3098032825   -4.1513276185   -0.9055789299
N        0.6476060446   -1.6047336723    0.0732555325
O       -1.0071701273   -3.5668150118    0.2480722629
S        0.1414698207   -3.1838944045   -0.5949803244
H        2.2578305493   -0.6416276762    0.8455390051
H        2.5734981849   -2.3972856223    0.2364248677
H       -1.0618695094   -1.7367969466   -2.0251742259
H        0.4846559227   -2.2894397672   -2.7715826423
H       -0.9174646623   -3.4071642642   -2.6801298470
H        1.4468399950   -4.8016672709   -0.1290076818
12   
torsion grid (-105,)
C        1.8559912851   -1.5475002989    0.3203991890
C       -0.3398035646   -2.5580783027   -2.1608076334
N        1.2818292234   -4.1816136802   -0.8575520235
N        0.5946692418   -1.6759828732    0.2079118826
O       -1.0840893568   -3.6291176791    0.2198803732
S        0.1037461168   -3.2223306726   -0.5519285762
H        2.2357823299   -0.6309583501    0.7776165493
H        2.5733072264   -2.3140215693   -0.0064631027
H       -0.9990954167   -1.7052626843   -1.9983200435
H        0.5730408059   -2.2694859144   -2.6807046004
H       -0.8557659358   -3.3571177203   -2.6947346375
H        1.4188028325   -4.8314731374   -0.0800392473
12   
torsion grid (-90,)
C        1.8241047025   -1.5268955720    0.2466458486
C       -0.2809277162   -2.5379623229   -2.1212192515
N        1.2449622382   -4.2312845060   -0.8210770931
N        0.5760367336   -1.7615627956    0.3375092997
O       -1.1503589710   -3.6674826308    0.1944730658
S        0.0751083561   -3.2619739663   -0.5134931484
H        2.2070699565   -0.6197299404    0.7202777401
H        2.5352523799   -2.2011259807   -0.2516888481
H       -0.9292275626   -1.6754133184   -1.9644600825
H        0.6599880473   -2.2558440637   -2.5918005002
H       -0.7901869845   -3.3087673018   -2.7011792637
H        1.3865936077   -4.8749004839   -0.0387296370
12   
torsion grid (-75,)
C        1.7861344763   -1.4972214743    0.1834490853
C       -0.2200196036   -2.5251466521   -2.0845857744
N        1.2049525029   -4.2970938592   -0.7889537435
N        0.5971779818   -1.8612529495    0.4566689018
O       -1.2036728670   -3.6758482620    0.1691216517
S        0.0604349039   -3.2992525194   -0.4824726160
H        2.1782731318   -0.6132983943    0.6926998613
H        2.4561308825   -2.0392546206   -0.4985453305
H       -0.8542919976   -1.6517465912   -1.9296535523
H        0.7404106822   -2.2549846433   -2.5211493784
H       -0.7280378510   -3.2701158233   -2.6983407273
H        1.3409225455   -4.9377270935   -0.0029802481
12   
torsion grid (-60,)
C        1.7517208268   -1.4544226531    0.1465847969
C       -0.1627702023   -2.5255872352   -2.0612406530
N        1.1604984534   -4.3781096750   -0.7671267701
N        0.6654105455   -1.9770650333    0.5543930640
O       -1.2354608002   -3.6451265881    0.1479644353
S        0.0648224656   -3.3303429677   -0.4633990409
H        2.1649227562   -0.6226650919    0.7228504048
H        2.3298511062   -1.7999200056   -0.7208901901
H       -0.7615959595   -1.6280278922   -1.9033470244
H        0.8067800657   -2.2961102457   -2.5002661604
H       -0.7013341311   -3.2443718005   -2.6800710512
H        1.2755696613   -5.0211936943    0.0198063188
12   
torsion grid (-45,)
C        1.7219503302   -1.3995042791    0.1358883837
C       -0.1116820442   -2.5429682689   -2.0569580714
N        1.1163548545   -4.4638037110   -0.7515282306
N        0.7703005813   -2.0982202530    0.6097512570
O       -1.2385749416   -3.5840970255    0.1396844045
S        0.0867411067   -3.3535534720   -0.4563248917
H        2.1777288602   -0.6511088759    0.7891116838
H        2.1431232866   -1.4945201203   -0.8729496242
H       -0.6597441498   -1.6136397001   -1.8986895817
H        0.8568958808   -2.3745911303   -2.5247943782
H       -0.7017130674   -3.2379409080   -2.6555101427
H        1.1970340904   -5.1089951384    0.0375773212
12   
torsion grid (-30,)
C        1.6882527713   -1.3506816656    0.1329720616
C       -0.0632472892   -2.5626922839   -2.0590752545
N        1.0694984212   -4.5422410591   -0.7476448939
N        0.8873600007   -2.2090802784    0.6227503649
O       -1.2234939695   -3.5163282512    0.1472609403
S        0.1122139197   -3.3721893118   -0.4547406752
H        2.2021141849   -0.6809574026    0.8268712734
H        1.9135877640   -1.2203237185   -0.9324920571
H       -0.5591447522   -1.6037374817   -1.9054229124
H        0.9042023460   -2.4558110549   -2.5477677360
H       -0.7017622404   -3.2307372676   -2.6380137546
H        1.1288336310   -5.1781631072    0.0505607733
12   
torsion grid (-15,)
C        1.6632728921   -1.3155300145    0.1338491414
C       -0.0252802414   -2.5806777565   -2.0641767140
N        1.0010850630   -4.6129577388   -0.7598155109
N        1.0149324306   -2.3024144260    0.6070935629
O       -1.1978087133   -3.4297369228    0.1791253270
S        0.1310208148   -3.3818328737   -0.4541330129
H        2.2416703948   -0.7058961641    0.8320918839
H        1.6924309741   -1.0158893694   -0.9203280646
H       -0.5111553368   -1.6144405197   -1.9249232780
H        0.9471422530   -2.4921532722   -2.5472783316
H       -0.6691861974   -3.2450037805   -2.6412607337
H        1.0702904541   -5.2264100443    0.0550138604
12   
torsion grid (0,)
C        1.6390933343   -1.2889649529    0.1404978006
C        0.0079640666   -2.5982894216   -2.0733306149
N        0.9237976651   -4.6731575449   -0.7750723434
N        1.1432890980   -2.3793995808    0.5690117473
O       -1.1625929815   -3.3383058810    0.2193715800
S        0.1465983035   -3.3860382914   -0.4551308415
H        2.2797628571   -0.7207839517    0.8189938075
H        1.4788987519   -0.8625189834   -0.8564170440
H       -0.4837224403   -1.6323800182   -1.9543729549
H        0.9893411185   -2.5118930634   -2.5388384830
H       -0.6241451325   -3.2697870500   -2.6549261122
H        1.0201301469   -5.2614241433    0.0554715883
12   
torsion grid (15,)
C        1.5785308301   -1.3016150065    0.2367841887
C       -0.4596482550   -2.4902393165   -1.7040946870
N        1.2871315675   -4.4200298958   -1.6643285176
N        1.7028898272   -2.5672498150    0.2001914612
O       -0.3068895032   -4.0855149882    0.4533432293
S        0.5317364736   -3.5600380600   -0.6399943230
H        2.3406625475   -0.7310547925    0.7728330639
H        0.7688410496   -0.7260705798   -0.2265644100
H       -1.0728265595   -1.8379567988   -1.0820610623
H        0.1889725701   -1.9320372404   -2.3787894076
H       -1.0952676625   -3.1711812476   -2.2704577181
H        1.8942819021   -5.0999551415   -1.2016036877
12   
torsion grid (30,)
C        1.5586735699   -1.3002259672    0.2714940266
C       -0.4378526463   -2.4934127502   -1.7399549702
N        1.2299713450   -4.4843022466   -1.6628298100
N        1.7923297674   -2.5347767163    0.0711394089
O       -0.2602589241   -3.9844979860    0.4999025680
S        0.5489681900   -3.5475662760   -0.6549225667
H        2.3444219268   -0.7031913345    0.7408118564
H        0.6305876614   -0.7761060385    0.0140668787
H       -1.0416314961   -1.8178346675   -1.1341675143
H        0.2207657339   -1.9587669226   -2.4239470144
H       -1.0825677237   -3.1780639156   -2.2912930696
H        1.8550073835   -5.1441980616   -1.1950416636
12   
torsion grid (45,)
C        1.5352729596   -1.3029967000    0.3144332637
C       -0.4161338553   -2.4970167333   -1.7843902835
N        1.1904810236   -4.5383667013   -1.6548605576
N        1.8617255954   -2.4708894624   -0.0710070813
O       -0.2092805789   -3.8794722441    0.5250659607
S        0.5721345797   -3.5284265238   -0.6801741181
H        2.3251300881   -0.6580168815    0.7079291919
H        0.5207170954   -0.8861343015    0.2985050983
H       -0.9716355715   -1.7704418716   -1.1919134483
H        0.2415917199   -2.0177530746   -2.5090247062
H       -1.1031147424   -3.1802009540   -2.2841549360
H        1.8115264739   -5.1932274346   -1.1751502539
12   
torsion grid (60,)
C        1.5137994524   -1.3146777845    0.3672044652
C       -0.3978245842   -2.4990891884   -1.8387194492
N        1.1778317320   -4.5759313169   -1.6397457266
N        1.8996047410   -2.3763312323   -0.2195203529
O       -0.1743771006   -3.7709254960    0.5213562951
S        0.5948758439   -3.5009981184   -0.7156170769
H        2.2785654918   -0.6007236263    0.6847296340
H        0.4724060866   -1.0696437829    0.6115464241
H       -0.8739828318   -1.7045178077   -1.2649438149
H        0.2453793853   -2.1034170811   -2.6242600860
H       -1.1475748466   -3.1716095609   -2.2564398156
H        1.7697114178   -5.2350778874   -1.1303323666
12   
torsion grid (75,)
C        1.5206973573   -1.3316628901    0.4148682125
C       -0.4009722012   -2.5084279927   -1.8949484157
N        1.1683744297   -4.5956915027   -1.6059756128
N        1.8899067182   -2.2673189235   -0.3662619443
O       -0.1596050016   -3.6614969561    0.5159098369
S        0.5998540109   -3.4633239623   -0.7434819413
H        2.2533931888   -0.5596985644    0.6658614967
H        0.5319785630   -1.2681671050    0.8864324239
H       -0.8548285979   -1.6870034121   -1.3408258611
H        0.2338606526   -2.1477805725   -2.7038991250
H       -1.1629250691   -3.1899858578   -2.2745217199
H        1.7386807371   -5.2423851433   -1.0578992202
12   
torsion grid (90,)
C        1.5559203685   -1.3583692385    0.4745988633
C       -0.4239779808   -2.5255162679   -1.9606645841
N        1.1728720479   -4.5837593907   -1.5642502687
N        1.8363029240   -2.1589985913   -0.4762734567
O       -0.1808236916   -3.5662122812    0.4984413036
S        0.5829031912   -3.4137975650   -0.7664152671
H        2.2665920711   -0.5551003558    0.6873516403
H        0.6674716824   -1.4501154578    1.1112171785
H       -0.8880618291   -1.6883693481   -1.4397212851
H        0.2100405162   -2.1893914657   -2.7806065743
H       -1.1747593096   -3.2328252253   -2.3147394238
H        1.7339347975   -5.2004876953   -0.9736799964
12   
torsion grid (105,)
C        1.6065495332   -1.3924047078    0.5312820271
C       -0.4569645855   -2.5492605187   -2.0253698391
N        1.1855715620   -4.5455484268   -1.5203395982
N        1.7552998590   -2.0502708991   -0.5500636597
O       -0.2211160917   -3.4860622367    0.4820125585
S        0.5508435246   -3.3579063027   -0.7809556275
H        2.3103386257   -0.5798741625    0.7301801875
H        0.8311844238   -1.6129558212    1.2747347323
H       -0.9443387405   -1.6987518552   -1.5493054609
H        0.1839704813   -2.2382341008   -2.8495625859
H       -1.1878887445   -3.2876668277   -2.3567684678
H        1.7449649401   -5.1240070236   -0.8905861365
12   
torsion grid (120,)
C        1.6593821972   -1.4322781430    0.5810891300
C       -0.4899141448   -2.5750625318   -2.0866455639
N        1.2088033973   -4.4860593970   -1.4767673947
N        1.6539753747   -1.9390421796   -0.5882943154
O       -0.2759889269   -3.4244165446    0.4639621513
S        0.5107768157   -3.2996680286   -0.7895786837
H        2.3626989300   -0.6192061292    0.7779717898
H        1.0052416919   -1.7734714180    1.3922907840
H       -0.9880417531   -1.7004593940   -1.6684156725
H        0.1611185282   -2.3089392964   -2.9182340121
H       -1.2122931903   -3.3366653456   -2.3819494455
H        1.7626558678   -5.0276744746   -0.8101706376
12   
torsion grid (135,)
C        1.7117168093   -1.4749010002    0.6176713513
C       -0.5172646589   -2.5995225283   -2.1402645083
N        1.2358488466   -4.4144919757   -1.4315630816
N        1.5348291146   -1.8315824307   -0.5928263099
O       -0.3458408077   -3.3823151265    0.4455226328
S        0.4641991633   -3.2451127924   -0.7905497005
H        2.4096713665   -0.6560766746    0.8081560097
H        1.1954271887   -1.9337439139    1.4692755969
H       -1.0272785610   -1.7050693235   -1.7819983488
H        0.1504231551   -2.3760485629   -2.9707838771
H       -1.2313191597   -3.3794213250   -2.4062738201
H        1.7780023308   -4.9246572288   -0.7311078148
12   
torsion grid (150,)
C        1.7660732199   -1.5173942387    0.6326316957
C       -0.5364230823   -2.6189848008   -2.1856947108
N        1.2495342834   -4.3486400719   -1.3717798635
N        1.4063664125   -1.7364405813   -0.5696793537
O       -0.4367893855   -3.3449972047    0.4268705870
S        0.4088128249   -3.1980306043   -0.7822790317
H        2.4428383810   -0.6797287148    0.8166575560
H        1.4201625746   -2.1009962826    1.4942676105
H       -1.0882799613   -1.7330213498   -1.8707151190
H        0.1581189115   -2.3920251654   -2.9927159425
H       -1.2138103827   -3.4273282054   -2.4617887538
H        1.7818109914   -4.8253556626   -0.6405165445
12   
torsion grid (165,)
C        1.8123735053   -1.5502072642    0.6295345017
C       -0.5426385135   -2.6311442490   -2.2200469292
N        1.2609236071   -4.2892886318   -1.3051546820
N        1.2670039283   -1.6503230131   -0.5165178081
O       -0.5363437622   -3.3252247206    0.4041623422
S        0.3553178677   -3.1620671489   -0.7676508013
H        2.4358651470   -0.6743487748    0.8233809323
H        1.6832922956   -2.2706644075    1.4467595475
H       -1.1348237625   -1.7591159781   -1.9419270479
H        0.1798050417   -2.3906277348   -2.9981070376
H       -1.1806171006   -3.4640322845   -2.5158937423
H        1.7582565339   -4.7558986754   -0.5432811455
12   
torsion grid (180,)
C        1.8449117223   -1.5673514393    0.6109715099
C       -0.5336442725   -2.6338319949   -2.2418085805
N        1.2813903685   -4.2416004086   -1.2313660998
N        1.1166073464   -1.5795132472   -0.4319270702
O       -0.6365765090   -3.3335351775    0.3706255696
S        0.3114798730   -3.1420749306   -0.7501922907
H        2.3744402433   -0.6436841883    0.8555474990
H        1.9787871455   -2.4145355454    1.2960799927
H       -1.1421033330   -1.7650630118   -1.9915429105
H        0.2127308418   -2.3921127725   -2.9971494077
H       -1.1517574398   -3.4757374133   -2.5537806046
H        1.7021488011   -4.7339027531   -0.4401994774
