28   
torsion grid (-165,)
C        7.7515982232   -1.2228939791   -0.5413489959
C       -2.6489164196   -2.1379275004   -0.4935293998
C        7.3322172560   -0.8802070619    0.7481218636
C        6.7888104222   -1.4951916011   -1.5177181988
C       -2.3289066721   -1.3437155718    0.6125275483
C       -1.6166901861   -2.6179033329   -1.3045960882
C        5.9723326957   -0.8142584420    1.0506366156
C        5.4225976063   -1.4288225340   -1.2319652672
C       -0.9984290768   -1.0387028969    0.8971141891
C       -0.2780816136   -2.3214513060   -1.0334543215
C        5.0065265843   -1.0852834722    0.0651746877
C        0.0381136605   -1.5232987852    0.0788712174
C        2.5358229151   -1.4431904520   -0.2384771127
N        3.6502896637   -0.9633906555    0.4424598407
N        1.3570994741   -1.1787540221    0.4477898247
O        2.5883944220   -2.0212815446   -1.3180481751
H        8.8101381904   -1.2776542635   -0.7794655590
H       -3.6845302498   -2.3769774051   -0.7183221962
H        8.0626438517   -0.6665466088    1.5241117337
H        7.1000260859   -1.7639657126   -2.5240287086
H       -3.1144733903   -0.9584629574    1.2573596401
H       -1.8501604568   -3.2356311374   -2.1681392910
H        5.6567458801   -0.5506334788    2.0591450419
H        4.6854906511   -1.6492084220   -1.9913026713
H       -0.7607417770   -0.4194875330    1.7610039342
H        0.5133853299   -2.6919906614   -1.6694061636
H        3.5133994834   -0.6629110397    1.3987327346
H        1.4185903106   -0.5888790103    1.2671965312
28   
torsion grid (-150,)
C        7.7253540075   -1.3104470154   -0.5093549099
C       -2.6361191842   -2.1695338582   -0.4615568355
C        7.3078585939   -1.0991745645    0.8081934467
C        6.7667100081   -1.3738099538   -1.5259375962
C       -2.3407922727   -1.2656482857    0.5642178124
C       -1.5868947679   -2.7167897417   -1.2055450789
C        5.9504339933   -0.9599815160    1.1016048690
C        5.4059894801   -1.2244187027   -1.2487532184
C       -1.0177343769   -0.9194337462    0.8364980033
C       -0.2555315840   -2.3803108352   -0.9457977147
C        4.9918210301   -1.0163019154    0.0765655076
C        0.0355550517   -1.4716333514    0.0855297378
C        2.5336438956   -1.3759958208   -0.2193398105
N        3.6357747403   -0.8168667247    0.4294846748
N        1.3464622608   -1.0820143847    0.4389937193
O        2.6084549056   -2.0296603354   -1.2521930078
H        8.7808602018   -1.4251583364   -0.7397246520
H       -3.6658289367   -2.4410470596   -0.6764354915
H        8.0363978579   -1.0505931067    1.6132849095
H        7.0783352761   -1.5384308298   -2.5542320959
H       -3.1399339421   -0.8266191961    1.1557947427
H       -1.8011710986   -3.4200821039   -2.0063242925
H        5.6327583406   -0.8078983457    2.1320316778
H        4.6705537564   -1.2827266970   -2.0398814515
H       -0.7990565407   -0.2150988044    1.6378872365
H        0.5490591237   -2.8032890856   -1.5307004345
H        3.4993173899   -0.5441486026    1.3946989808
H        1.3917051343   -0.3984094680    1.1834539677
28   
torsion grid (-135,)
C        7.6894003796   -1.4006805566   -0.5096489684
C       -2.6009321224   -2.2542096521   -0.4239571701
C        7.2585538726   -1.2988573095    0.8162001308
C        6.7567294137   -1.2695524652   -1.5447792788
C       -2.3381343531   -1.2658874261    0.5302923355
C       -1.5315831074   -2.8297552647   -1.1162473030
C        5.9091086134   -1.0766949843    1.1010465130
C        5.4089144913   -1.0286275851   -1.2721982930
C       -1.0267088097   -0.8647521081    0.7830219791
C       -0.2115379550   -2.4392889900   -0.8749947617
C        4.9808089370   -0.9297408800    0.0598815186
C        0.0466861461   -1.4456301865    0.0841244284
C        2.5420399218   -1.3070587784   -0.2148888956
N        3.6268306982   -0.6562005541    0.3858603850
N        1.3444374912   -0.9954606096    0.4135405336
O        2.6457670902   -2.0373246842   -1.1912002912
H        8.7370022380   -1.5819714513   -0.7336416489
H       -3.6213811308   -2.5687731342   -0.6237938422
H        7.9680587329   -1.4048529072    1.6326910708
H        7.0808623618   -1.3490963197   -2.5791996451
H       -3.1534124984   -0.8035254899    1.0806549179
H       -1.7209257668   -3.5984862893   -1.8612157678
H        5.5754772730   -1.0188440351    2.1357623877
H        4.6902263056   -0.9312525964   -2.0763620023
H       -0.8328773887   -0.0946105246    1.5282598745
H        0.6088864651   -2.8848182596   -1.4199809195
H        3.4908658689   -0.3710972510    1.3482505199
H        1.3685589072   -0.2519093237    1.0993701325
28   
torsion grid (-120,)
C        7.6383487914   -1.4924214696   -0.5214908061
C       -2.5705161170   -2.3344617522   -0.3720694342
C        7.1719171754   -1.5124423866    0.7960787071
C        6.7600446507   -1.1602848960   -1.5595939547
C       -2.3390586352   -1.2604907817    0.4936924022
C       -1.4823277688   -2.9399582922   -1.0071081757
C        5.8351876636   -1.2111880236    1.0724218730
C        5.4298015920   -0.8354536086   -1.2891330486
C       -1.0400588765   -0.8049276878    0.7169402922
C       -0.1746153930   -2.4949950782   -0.7946867329
C        4.9661042453   -0.8559612628    0.0325275124
C        0.0524762497   -1.4158943485    0.0758648294
C        2.5458562420   -1.2469513065   -0.2185806317
N        3.6143025283   -0.5160277869    0.3268588088
N        1.3366382076   -0.9062293830    0.3698402752
O        2.6780929385   -2.0587473176   -1.1233583228
H        8.6747948586   -1.7363253316   -0.7382904283
H       -3.5813149598   -2.6914943143   -0.5482309931
H        7.8417711683   -1.7781219174    1.6096975590
H        7.1138315996   -1.1469401474   -2.5871754358
H       -3.1695701943   -0.7735209621    0.9981558679
H       -1.6468862442   -3.7748771936   -1.6835977545
H        5.4668507438   -1.2532912993    2.0957806364
H        4.7467065376   -0.5773966268   -2.0907305977
H       -0.8708588237    0.0312076863    1.3938862069
H        0.6607052333   -2.9638366994   -1.2959006853
H        3.4756026836   -0.2040146797    1.2813875982
H        1.3397331746   -0.0960076477    0.9761105093
28   
torsion grid (-105,)
C        7.6129962816   -1.5424867826   -0.5197696413
C       -2.5364763325   -2.3950135213   -0.3127699206
C        7.0816699815   -1.7122727933    0.7622842703
C        6.8119279150   -1.0108518928   -1.5369279083
C       -2.3315717778   -1.2383107528    0.4465443214
C       -1.4318076968   -3.0420676865   -0.8742326036
C        5.7545625889   -1.3586074122    1.0242775473
C        5.4934911174   -0.6341877928   -1.2735301950
C       -1.0421640863   -0.7427331621    0.6381677399
C       -0.1333819894   -2.5580366631   -0.6926946995
C        4.9658896587   -0.8007939194    0.0112875563
C        0.0667903557   -1.3959632328    0.0712409794
C        2.5615313018   -1.2192674536   -0.2094952781
N        3.6123165368   -0.4195634223    0.2744359372
N        1.3396773464   -0.8403354059    0.3272396841
O        2.7209471272   -2.1120606357   -1.0291796651
H        8.6413547853   -1.8266945802   -0.7263693676
H       -3.5396930131   -2.7834377064   -0.4641765008
H        7.6926517343   -2.1356261246    1.5552099385
H        7.2168174807   -0.8829650013   -2.5373546661
H       -3.1752692371   -0.7178063066    0.8922620416
H       -1.5760161916   -3.9410913798   -1.4681942710
H        5.3301545810   -1.5185399951    2.0132713203
H        4.8646480568   -0.2191888309   -2.0548147583
H       -0.8932217150    0.1576867389    1.2323410782
H        0.7148868677   -3.0591748003   -1.1379106221
H        3.4713759970   -0.0580508935    1.2116253568
H        1.3250445170    0.0300643460    0.8433388835
28   
torsion grid (-90,)
C        7.5772950712   -1.5489023102   -0.5837523468
C       -2.5907138692   -2.4036908951   -0.3253159238
C        7.0183186480   -1.9888047855    0.6210490900
C        6.8072950161   -0.7904334922   -1.4715529800
C       -2.3879899162   -1.1763266703    0.3142358844
C       -1.4799326810   -3.1331625535   -0.7592923500
C        5.6981937328   -1.6639330160    0.9436546369
C        5.4807989872   -0.4795218356   -1.1586526013
C       -1.0955557014   -0.6911777495    0.5123738289
C       -0.1782374417   -2.6621447915   -0.5674553873
C        4.9268677343   -0.9158126818    0.0498919334
C        0.0195517432   -1.4279479311    0.0744606682
C        2.5369073473   -1.4310624565    0.0668773154
N        3.5831932531   -0.5595993071    0.4103603268
N        1.2929765103   -0.8597047100    0.2958570412
O        2.7222941795   -2.5650177911   -0.3514949290
H        8.6066793426   -1.7959935124   -0.8297206561
H       -3.5964074696   -2.7840901819   -0.4807320215
H        7.6131981521   -2.5771903222    1.3146294522
H        7.2347049670   -0.4493002605   -2.4108028252
H       -3.2362649806   -0.5920110991    0.6612951865
H       -1.6216480738   -4.0898271762   -1.2558725040
H        5.2532669156   -1.9908914001    1.8787434294
H        4.8702970076    0.0902892847   -1.8554042273
H       -0.9490283257    0.2664516955    1.0098513616
H        0.6761313787   -3.2371226975   -0.8967589895
H        3.3762458733    0.4264080649    0.2916060073
H        1.2857164530    0.0049770016    0.8215789208
28   
torsion grid (-75,)
C        7.6056468357   -1.5281852340   -0.5562285383
C       -2.5844829716   -2.4492127508   -0.2477086091
C        6.9414521179   -2.1418369187    0.5124321283
C        6.9276010049   -0.5967178234   -1.3477824203
C       -2.3842323135   -1.1559466060    0.2461135209
C       -1.4722690361   -3.2234012700   -0.5909307150
C        5.6134790231   -1.8204909141    0.7987564813
C        5.5899601600   -0.2895937315   -1.0794354290
C       -1.0922999069   -0.6511500286    0.3911384461
C       -0.1712032637   -2.7327095248   -0.4508320539
C        4.9310671470   -0.9025928190   -0.0075345786
C        0.0244276667   -1.4329507090    0.0454754310
C        2.5408674397   -1.4387111521    0.0583280501
N        3.5874232259   -0.5354199515    0.3179827712
N        1.2972908021   -0.8418575524    0.2047236554
O        2.7262830539   -2.6126097828   -0.2280706894
H        8.6428658562   -1.7731804553   -0.7685750390
H       -3.5895891535   -2.8455120612   -0.3615164023
H        7.4641357529   -2.8635585228    1.1345879766
H        7.4337292833   -0.1156131130   -2.1806224173
H       -3.2336259527   -0.5356662835    0.5203185727
H       -1.6123038785   -4.2309451755   -0.9744267786
H        5.0939657046   -2.2829139650    1.6320337216
H        5.0549204329    0.4188882186   -1.7085628801
H       -0.9474992893    0.3575511558    0.7752264367
H        0.6839487020   -3.3413412334   -0.7100371120
H        3.3737254182    0.4313146807    0.0972719843
H        1.2862388884    0.0780154108    0.6265153318
28   
torsion grid (-60,)
C        7.6302938411   -1.5023798703   -0.5104467719
C       -2.6046874284   -2.4674257181   -0.1543461331
C        6.8775018563   -2.2523112395    0.4011799541
C        7.0252624214   -0.4476531435   -1.1993777672
C       -2.3956671663   -1.1308579175    0.2011876245
C       -1.4982373176   -3.2802413637   -0.4173632410
C        5.5354268662   -1.9498920145    0.6354242842
C        5.6751881081   -0.1534294183   -0.9868302532
C       -1.1004338951   -0.6217399996    0.2900197086
C       -0.1937200503   -2.7860943718   -0.3323300937
C        4.9262965298   -0.9045598130   -0.0718177720
C        0.0102530995   -1.4428649075    0.0254445178
C        2.5269970488   -1.4604065870    0.0326803758
N        3.5759180772   -0.5410056710    0.1966044313
N        1.2867209160   -0.8454285672    0.1205623011
O        2.7031183267   -2.6589051580   -0.1352564251
H        8.6775242329   -1.7373426695   -0.6800569899
H       -3.6124351942   -2.8671660509   -0.2241256574
H        7.3417456261   -3.0710244434    0.9447793290
H        7.5978615382    0.1421514454   -1.9103864221
H       -3.2406184739   -0.4801078782    0.4108254577
H       -1.6455273119   -4.3212689043   -0.6936898543
H        4.9518664891   -2.5249854293    1.3455895946
H        5.2011707368    0.6560808806   -1.5389054965
H       -0.9485070332    0.4206092193    0.5665280201
H        0.6568783824   -3.4234468560   -0.5299111638
H        3.3559910652    0.4121929204   -0.0690968328
H        1.2786752792    0.1157225469    0.4370580791
28   
torsion grid (-45,)
C        7.6767130120   -1.4503751069   -0.4484052683
C       -2.6187474764   -2.4684970797   -0.0530077024
C        6.8607532177   -2.3073641906    0.2988498982
C        7.1141739032   -0.3164727641   -1.0412380738
C       -2.3966592412   -1.1076843373    0.1822005186
C       -1.5210218732   -3.3089693149   -0.2593678648
C        5.5003394114   -2.0422302363    0.4653617149
C        5.7505748047   -0.0503817928   -0.8961415032
C       -1.0973250213   -0.6021452660    0.2092102527
C       -0.2124875953   -2.8187169191   -0.2353697630
C        4.9366790502   -0.9117139556   -0.1454405146
C        0.0046879597   -1.4510518187    0.0019368521
C        2.5218819214   -1.4848826576   -0.0163452627
N        3.5745804019   -0.5641026528    0.0440693595
N        1.2854055084   -0.8556346493    0.0274741717
O        2.6838514343   -2.6964648758   -0.0751575682
H        8.7357292969   -1.6630087816   -0.5656161367
H       -3.6297610117   -2.8654846750   -0.0742641583
H        7.2881784405   -3.1898334586    0.7679115408
H        7.7322675173    0.3601605075   -1.6255360393
H       -3.2346078304   -0.4350853276    0.3458869788
H       -1.6784183214   -4.3688930806   -0.4425717193
H        4.8734947779   -2.7086815509    1.0444344576
H        5.3157654747    0.8267139665   -1.3726863836
H       -0.9354491992    0.4591265627    0.3924776243
H        0.6310695526   -3.4770123694   -0.3890524560
H        3.3513618495    0.3800707894   -0.2466686860
H        1.2835518800    0.1316146910    0.2492162562
28   
torsion grid (-30,)
C        7.7128920588   -1.4043867762   -0.3823802828
C       -2.6337396383   -2.4555015669    0.0418723639
C        6.8634812691   -2.3458720776    0.2078606338
C        7.1690226502   -0.2196334932   -0.8878465816
C       -2.3963914987   -1.0838785384    0.1786175338
C       -1.5467986932   -3.3184400206   -0.1250962597
C        5.4881539631   -2.1220459080    0.3041003045
C        5.7952817645    0.0128532382   -0.8077965638
C       -1.0926793323   -0.5899516684    0.1478430426
C       -0.2342285023   -2.8397650062   -0.1585093343
C        4.9452730892   -0.9349675368   -0.2139276135
C       -0.0013420940   -1.4611154040   -0.0201858510
C        2.5153976696   -1.5201064284   -0.0627217185
N        3.5721114833   -0.6104733194   -0.1084922187
N        1.2839943568   -0.8767745010   -0.0623233115
O        2.6607735610   -2.7352157874   -0.0148018539
H        8.7812832843   -1.5904384349   -0.4473563703
H       -3.6481485016   -2.8435664459    0.0659331574
H        7.2739049754   -3.2701582306    0.6064899485
H        7.8109967406    0.5249861062   -1.3512465255
H       -3.2256772823   -0.3937769025    0.3104963160
H       -1.7160290572   -4.3869661598   -0.2318567830
H        4.8379111401   -2.8588220375    0.7559714084
H        5.3791838815    0.9345720086   -1.2118137439
H       -0.9190451925    0.4798378126    0.2553081866
H        0.6007899215   -3.5152652934   -0.2804449667
H        3.3474943525    0.3275575344   -0.4153287240
H        1.2905348866    0.1258681969    0.0729111580
28   
torsion grid (-15,)
C        7.7403991930   -1.3856304445   -0.3352808969
C       -2.6424492337   -2.4602355174    0.0809899689
C        6.8775837994   -2.4176765355    0.0450615986
C        7.2014412367   -0.1387372893   -0.6683772815
C       -2.3982924885   -1.0838274252    0.0314780588
C       -1.5576399890   -3.3415044951    0.0672112844
C        5.4942514287   -2.2278120597    0.1008141008
C        5.8226515931    0.0655900283   -0.6228050111
C       -1.0906746555   -0.6038774641   -0.0305241745
C       -0.2407843836   -2.8773606075    0.0054549227
C        4.9575368980   -0.9747007072   -0.2392486160
C       -0.0011513097   -1.4936956119   -0.0440243107
C        2.5171892837   -1.5690004712   -0.0862064496
N        3.5779211505   -0.6750912491   -0.1848511355
N        1.2881989608   -0.9221209557   -0.1160880919
O        2.6522511250   -2.7825630294    0.0236149511
H        8.8138178189   -1.5487802978   -0.3720738475
H       -3.6600517450   -2.8374547137    0.1296476494
H        7.2823646351   -3.3918949505    0.3073999150
H        7.8525819888    0.6783907431   -0.9678013370
H       -3.2255462633   -0.3789205011    0.0413512302
H       -1.7317802233   -4.4138894210    0.1055049922
H        4.8341505687   -3.0331760171    0.3906746964
H        5.4131742831    1.0392688413   -0.8882983508
H       -0.9123849681    0.4699171951   -0.0685699469
H        0.5922198754   -3.5659232955   -0.0018229414
H        3.3561209042    0.2892585454   -0.3947629661
H        1.2927790531    0.0890250538   -0.1398249654
28   
torsion grid (0,)
C        7.7499318759   -1.3865261457   -0.2809392975
C       -2.6432087565   -2.4655242362    0.1548322671
C        6.8794310565   -2.4643536539   -0.0961791911
C        7.2154030218   -0.1064211196   -0.4602883289
C       -2.3990565463   -1.1037875610   -0.0516167971
C       -1.5581181483   -3.3413063606    0.2507544844
C        5.4927719709   -2.2896999272   -0.0870947053
C        5.8344218278    0.0853909452   -0.4539526542
C       -1.0911279858   -0.6329222867   -0.1590825179
C       -0.2409130689   -2.8861395569    0.1449208255
C        4.9609864984   -1.0016774999   -0.2677180113
C       -0.0011698362   -1.5171784697   -0.0622154864
C        2.5172392592   -1.5991170734   -0.1154098137
N        3.5779898219   -0.7162963576   -0.2755127228
N        1.2883639636   -0.9546380169   -0.1839088191
O        2.6499543001   -2.8048730559    0.0647851339
H        8.8254493721   -1.5395323968   -0.2852134142
H       -3.6610537050   -2.8357222246    0.2391733617
H        7.2802651510   -3.4650340886    0.0444478694
H        7.8721246196    0.7473245576   -0.6058528826
H       -3.2264902996   -0.4033255508   -0.1294551400
H       -1.7322850001   -4.4023289680    0.4110739434
H        4.8269659138   -3.1287649480    0.0565996991
H        5.4293022975    1.0865850206   -0.5946302194
H       -0.9128750021    0.4295486523   -0.3193508213
H        0.5922166580   -3.5703718238    0.2204004721
H        3.3579497353    0.2606018267   -0.4173854453
H        1.2908999131    0.0452466942   -0.3358797509
28   
torsion grid (15,)
C        7.7419997053   -1.3759363572   -0.2709600208
C       -2.6367230230   -2.4314321002    0.2714829960
C        6.8669735688   -2.4660779249   -0.2827658691
C        7.2129713414   -0.0812603520   -0.2815525928
C       -2.4027430276   -1.1043203842   -0.1034864351
C       -1.5451094695   -3.2786389939    0.4818927082
C        5.4811511176   -2.2881233337   -0.3071165511
C        5.8321921766    0.1135850308   -0.3007919574
C       -1.0981537234   -0.6390308332   -0.2635036017
C       -0.2311950681   -2.8285573451    0.3257423401
C        4.9548560492   -0.9854483598   -0.3130985450
C       -0.0017570536   -1.4944848426   -0.0510960815
C        2.5151304404   -1.5767455406   -0.1394256218
N        3.5718405287   -0.7021169431   -0.3684845549
N        1.2843900068   -0.9384388229   -0.2269679688
O        2.6542123722   -2.7706535840    0.1018866954
H        8.8170985853   -1.5310558034   -0.2535832276
H       -3.6519541536   -2.7972120251    0.3967118940
H        7.2638242183   -3.4781166511   -0.2754228315
H        7.8737080131    0.7816801973   -0.2719008555
H       -3.2355479455   -0.4268096310   -0.2730714167
H       -1.7114877113   -4.3126648533    0.7732905848
H        4.8119795887   -3.1369858006   -0.3103013619
H        5.4308473626    1.1260674667   -0.3047987232
H       -0.9276525774    0.3962231300   -0.5558193837
H        0.6070260473   -3.4913996764    0.4873191083
H        3.3544881332    0.2838238214   -0.4311344217
H        1.2812925685    0.0340372285   -0.5049892667
28   
torsion grid (30,)
C        7.7285270546   -1.3936283177   -0.2397016182
C       -2.6120946288   -2.4228530316    0.3616853845
C        6.8530132336   -2.4609934738   -0.4642847599
C        7.2057771137   -0.1069824179   -0.0777698726
C       -2.3984553851   -1.1482022298   -0.1731679770
C       -1.5075610285   -3.2168606661    0.6833179121
C        5.4720087876   -2.2635612877   -0.5332022809
C        5.8273043996    0.1034096092   -0.1337687809
C       -1.1008928717   -0.6813431657   -0.3801241093
C       -0.2006842077   -2.7643067807    0.4822271376
C        4.9509187221   -0.9710026422   -0.3599473390
C        0.0081570127   -1.4832255709   -0.0556396076
C        2.5227226675   -1.5521502888   -0.1702195762
N        3.5703646217   -0.6804909205   -0.4677807162
N        1.2871127558   -0.9268356759   -0.2788013899
O        2.6779524419   -2.7280509132    0.1352622143
H        8.8008497969   -1.5613153840   -0.1918545790
H       -3.6217575133   -2.7896214173    0.5237142764
H        7.2467174802   -3.4659110305   -0.5938594886
H        7.8683891471    0.7363404632    0.0984926639
H       -3.2417393400   -0.5130553880   -0.4316150681
H       -1.6582046833   -4.2099424178    1.0991007495
H        4.8017653150   -3.0957443906   -0.7006546783
H        5.4283161916    1.1075344690    0.0021034424
H       -0.9459346446    0.3128945895   -0.7968203807
H        0.6475371981   -3.3877558322    0.7276006571
H        3.3556922389    0.3083847772   -0.4465079670
H        1.2735980249   -0.0040946674   -0.6934165501
28   
torsion grid (45,)
C        7.6945200315   -1.4218087928   -0.1654024866
C       -2.5922257920   -2.4084413454    0.4489215548
C        6.8404413431   -2.4529689724   -0.5726997346
C        7.1613761082   -0.1584740011    0.1055127446
C       -2.4000373868   -1.1787213136   -0.1892992563
C       -1.4745921823   -3.1632558931    0.8164934008
C        5.4694772990   -2.2339161929   -0.7182650027
C        5.7884044399    0.0662917543   -0.0200617431
C       -1.1107737479   -0.7170498372   -0.4524120288
C       -0.1757199446   -2.7156485816    0.5600111552
C        4.9351155485   -0.9689689665   -0.4298512570
C        0.0111880710   -1.4798709578   -0.0817923285
C        2.5238021573   -1.5331025074   -0.2235099756
N        3.5596574034   -0.6798916008   -0.6216507856
N        1.2811409592   -0.9320893949   -0.3689875485
O        2.7023269105   -2.6745364337    0.1801832898
H        8.7611431753   -1.6007474737   -0.0618164021
H       -3.5954326034   -2.7708598150    0.6549211570
H        7.2448128920   -3.4382541922   -0.7899737378
H        7.8099891925    0.6536047229    0.4235269543
H       -3.2538476131   -0.5745813723   -0.4848604610
H       -1.6084871032   -4.1212851421    1.3125042342
H        4.8122918986   -3.0346609836   -1.0334864955
H        5.3771641285    1.0485574625    0.2067288190
H       -0.9724196729    0.2422754991   -0.9490463918
H        0.6828801768   -3.3090733935    0.8414619977
H        3.3454813254    0.3099564018   -0.6079769418
H        1.2547435997   -0.0541502859   -0.8713541759
28   
torsion grid (60,)
C        7.6627863061   -1.4422541894   -0.0866787985
C       -2.5615992323   -2.3792663135    0.5388784103
C        6.8603503551   -2.4202294769   -0.6865185611
C        7.0918162031   -0.2268649062    0.3005831070
C       -2.3917230868   -1.2080126216   -0.2066499875
C       -1.4310468458   -3.0888801260    0.9540637326
C        5.5024643966   -2.1884292153   -0.9098839761
C        5.7274775953    0.0038903415    0.1010337093
C       -1.1111548031   -0.7589656942   -0.5279533986
C       -0.1408049804   -2.6530167069    0.6402611385
C        4.9290084942   -0.9766013424   -0.5017186605
C        0.0238310512   -1.4760168490   -0.1090569831
C        2.5340804086   -1.5186189113   -0.2808010130
N        3.5598931307   -0.6965551160   -0.7755654330
N        1.2843628124   -0.9443971519   -0.4608423669
O        2.7339587958   -2.6169087603    0.2186103397
H        8.7215030555   -1.6257597596    0.0749547134
H       -3.5579071922   -2.7318256666    0.7904516800
H        7.2971138253   -3.3663314578   -0.9954507775
H        7.7030772980    0.5408023399    0.7678032129
H       -3.2560456406   -0.6400606650   -0.5409241936
H       -1.5478493639   -4.0014637261    1.5331486728
H        4.8802253193   -2.9416020277   -1.3801285043
H        5.2817141595    0.9438894752    0.4212311772
H       -0.9897710920    0.1546595701   -1.1081152092
H        0.7281862393   -3.2117851528    0.9586960440
H        3.3486497792    0.2948687658   -0.7852847567
H        1.2448588234   -0.1160634640   -1.0407915117
28   
torsion grid (75,)
C        7.6318979730   -1.4649289143   -0.0373783000
C       -2.5458332281   -2.3342646760    0.6247339943
C        6.9037109981   -2.3577944401   -0.8325366409
C        6.9999097317   -0.3358875668    0.4916487939
C       -2.3925361940   -1.2453007816   -0.2396626919
C       -1.4055009905   -2.9847192704    1.1051082920
C        5.5561666811   -2.1209618038   -1.1096482568
C        5.6441363386   -0.1073583560    0.2364103159
C       -1.1185159069   -0.8182653189   -0.6130300391
C       -0.1217317563   -2.5701609967    0.7401459565
C        4.9210278827   -1.0004466337   -0.5625417811
C        0.0263311754   -1.4756035563   -0.1281901842
C        2.5367538754   -1.5082378567   -0.3052675795
N        3.5543503011   -0.7316596844   -0.8884381224
N        1.2796086314   -0.9706135488   -0.5393012917
O        2.7525402661   -2.5470428901    0.3021455239
H        8.6835709398   -1.6474876224    0.1665474567
H       -3.5369818742   -2.6694913375    0.9171127538
H        7.3906119665   -3.2350485133   -1.2502895574
H        7.5563755689    0.3623797232    1.1113499584
H       -3.2647353813   -0.7245827859   -0.6263507259
H       -1.5094531069   -3.8335877171    1.7762556998
H        4.9861107053   -2.8014718329   -1.7341528634
H        5.1453163521    0.7591720998    0.6657028675
H       -1.0098413337    0.0315515244   -1.2853414356
H        0.7551333928   -3.0841609660    1.1087557412
H        3.3464973403    0.2591628880   -0.9513076507
H        1.2309761027   -0.2162747790   -1.2121829667
28   
torsion grid (90,)
C        7.6115855851   -1.4780427881   -0.0081608016
C       -2.5406062325   -2.2716871318    0.6978553944
C        6.9743793443   -2.2449681331   -0.9896330614
C        6.8973940510   -0.4854305331    0.6708077872
C       -2.3959335435   -1.2918818173   -0.2898552244
C       -1.3946847936   -2.8479108109    1.2538822473
C        5.6315321206   -2.0148407382   -1.2996859799
C        5.5489618011   -0.2657741529    0.3748002479
C       -1.1253677728   -0.8982441624   -0.7090725437
C       -0.1143791829   -2.4658794358    0.8440993640
C        4.9164888123   -1.0306549529   -0.6114648758
C        0.0252938928   -1.4802473404   -0.1475776126
C        2.5371733435   -1.5039920192   -0.3107294874
N        3.5474773210   -0.7810353949   -0.9657197708
N        1.2742161780   -1.0132517591   -0.6120459017
O        2.7635166398   -2.4665013407    0.4085888902
H        8.6582642780   -1.6529403437    0.2264871478
H       -3.5290405912   -2.5805639910    1.0262842137
H        7.5254917973   -3.0162830929   -1.5211208611
H        7.3858660671    0.1109137548    1.4369662168
H       -3.2724044714   -0.8304592658   -0.7374522275
H       -1.4915430883   -3.6123649036    2.0207656391
H        5.1259226317   -2.5959184223   -2.0651737938
H        4.9827597065    0.4890348014    0.9156981784
H       -1.0237617159   -0.1330664305   -1.4772952777
H        0.7668193666   -2.9240407951    1.2713709456
H        3.3383631669    0.1993027165   -1.1217456130
H        1.2217271063   -0.3472891555   -1.3722577395
28   
torsion grid (105,)
C        7.6300702584   -1.4913873091   -0.0594339246
C       -2.5010273068   -2.2672988875    0.6706803137
C        7.0169609803   -2.0275190887   -1.1958745559
C        6.8928671093   -0.6753505142    0.8063366274
C       -2.3590993012   -1.3837195432   -0.4043230763
C       -1.3547867845   -2.7362222666    1.3191296546
C        5.6716966815   -1.7545051406   -1.4616095126
C        5.5559168512   -0.3808709953    0.5317941086
C       -1.0903414009   -0.9803032068   -0.8195406201
C       -0.0761997298   -2.3412310876    0.9162668164
C        4.9462553109   -0.9146797398   -0.6084661925
C        0.0605171345   -1.4536732356   -0.1643196101
C        2.5665184107   -1.2261352160   -0.1145235054
N        3.5742822952   -0.6155637819   -0.8817133119
N        1.3079147279   -1.0120883577   -0.6578177672
O        2.7894016870   -1.8394374374    0.9191903934
H        8.6728236523   -1.7115812116    0.1530528611
H       -3.4880152283   -2.5831413168    0.9967751123
H        7.5784938110   -2.6720711135   -1.8670685577
H        7.3619227457   -0.2614988720    1.6950768994
H       -3.2360221888   -1.0053710140   -0.9232394088
H       -1.4499791659   -3.4220488703    2.1572296678
H        5.1841654472   -2.1954875397   -2.3285844243
H        4.9758576957    0.2522946758    1.1956669226
H       -0.9904697382   -0.2931687946   -1.6585098439
H        0.8050347668   -2.7011084376    1.4289353176
H        3.3669992689   -0.5440258652   -1.8720369973
H        1.2497918821   -0.3302682235   -1.4034312991
28   
torsion grid (120,)
C        7.6554419138   -1.4444977579   -0.0750099118
C       -2.5319794322   -2.1931678437    0.7108307984
C        7.1023455014   -1.8471268532   -1.2939934619
C        6.8442987804   -0.8130692485    0.8751539064
C       -2.3693127283   -1.4215700228   -0.4444527803
C       -1.3974112786   -2.5976448682    1.4202034755
C        5.7470381970   -1.6272120600   -1.5563940942
C        5.4957590122   -0.5689915464    0.6102134352
C       -1.0929151389   -1.0643923020   -0.8780828864
C       -0.1111946050   -2.2479721451    0.9999726497
C        4.9448110593   -0.9729089978   -0.6125870754
C        0.0460059153   -1.4727240597   -0.1611441870
C        2.5515113313   -1.2485669956   -0.0958797403
N        3.5730075496   -0.7212279506   -0.9029067269
N        1.3024144546   -1.0845736445   -0.6768638975
O        2.7531023476   -1.7613217051    0.9957170118
H        8.7064835669   -1.6237656558    0.1345205301
H       -3.5251165834   -2.4726553330    1.0511347830
H        7.7190034894   -2.3472305548   -2.0362265779
H        7.2654223705   -0.5012020407    1.8273353821
H       -3.2365568112   -1.0947065572   -1.0122590279
H       -1.5079232767   -3.1966464089    2.3206321609
H        5.3117929150   -1.9654223920   -2.4948667209
H        4.8649345533   -0.0796652108    1.3439980307
H       -0.9778221912   -0.4643444934   -1.7795941519
H        0.7604368068   -2.5584321225    1.5591295752
H        3.3679457129   -0.7014559532   -1.8954309692
H        1.2566461135   -0.4871324781   -1.4923475435
28   
torsion grid (135,)
C        7.7066300297   -1.3605777295   -0.1147753620
C       -2.5600612898   -2.0947075443    0.7401993663
C        7.1882773556   -1.6499572342   -1.3802178242
C        6.8427198320   -0.9229874463    0.8956074523
C       -2.3700669910   -1.4280928251   -0.4746808801
C       -1.4417473805   -2.4591761946    1.4955460335
C        5.8204478293   -1.5109159273   -1.6279717838
C        5.4773096880   -0.7622261243    0.6535787138
C       -1.0819084752   -1.1342560290   -0.9206971250
C       -0.1440890277   -2.1720783803    1.0632489406
C        4.9609902821   -1.0569211559   -0.6168638645
C        0.0408826967   -1.5017199916   -0.1575627897
C        2.5502043112   -1.3153063386   -0.0814298898
N        3.5855174524   -0.8789003170   -0.9175888333
N        1.3097921639   -1.1826172803   -0.6900617201
O        2.7270555838   -1.7349590014    1.0542520549
H        8.7687809117   -1.4762795273    0.0825918888
H       -3.5621925592   -2.3248397335    1.0908876970
H        7.8438430294   -1.9971605519   -2.1745569247
H        7.2350660881   -0.6969662603    1.8837387194
H       -3.2243260706   -1.1342957173   -1.0790626607
H       -1.5742069770   -2.9770480636    2.4421350321
H        5.4188623243   -1.7575433534   -2.6093708902
H        4.8119323173   -0.4261862709    1.4391619529
H       -0.9449840147   -0.6156818360   -1.8685330980
H        0.7147951613   -2.4514010256    1.6572826873
H        3.3816468782   -0.8855454175   -1.9097202462
H        1.2810989108   -0.6605042306   -1.5563523739
28   
torsion grid (150,)
C        7.7403758563   -1.2766287445   -0.1446671380
C       -2.5913938460   -2.0078475344    0.7532754569
C        7.2341821505   -1.4576407259   -1.4353310803
C        6.8522560446   -1.0285873623    0.9071008373
C       -2.3752058679   -1.4458581296   -0.5091932040
C       -1.4888150740   -2.3254107951    1.5516468825
C        5.8588655921   -1.3962161583   -1.6652673840
C        5.4748006895   -0.9531864467    0.6887854610
C       -1.0769300659   -1.2085002055   -0.9593508003
C       -0.1813306148   -2.0938726403    1.1156684202
C        4.9703586978   -1.1386521528   -0.6083778570
C        0.0302157700   -1.5287965395   -0.1531695129
C        2.5413830488   -1.3710903481   -0.0571431694
N        3.5919290375   -1.0386122700   -0.9138322731
N        1.3103568807   -1.2739314172   -0.6931274871
O        2.6913602367   -1.6930933104    1.1148090152
H        8.8099165551   -1.3296109406    0.0385761879
H       -3.6014679171   -2.1937749688    1.1073590256
H        7.9068472332   -1.6554833630   -2.2658173977
H        7.2330874098   -0.8871298217    1.9153611377
H       -3.2167994033   -1.1899621224   -1.1476164200
H       -1.6415675158   -2.7620821197    2.5353929850
H        5.4720570538   -1.5504318016   -2.6714466367
H        4.7943802660   -0.7692666578    1.5093012860
H       -0.9198403236   -0.7710134770   -1.9442598650
H        0.6650724481   -2.3363432788    1.7427347577
H        3.3884985589   -1.0621178719   -1.9051234372
H        1.2986818608   -0.8383568176   -1.6062235477
28   
torsion grid (165,)
C        7.7470139558   -1.1638677591   -0.5659965992
C       -2.6671715622   -1.9370692569   -0.5861717450
C        7.2970222512   -0.4668724206    0.5599782615
C        6.8201733691   -1.8577755391   -1.3494489581
C       -2.3166891556   -1.4995901433    0.6953638746
C       -1.6562885379   -2.1662572722   -1.5238467852
C        5.9421300334   -0.4653092734    0.8906164698
C        5.4601567579   -1.8709249367   -1.0287659914
C       -0.9775776267   -1.2969323481    1.0267430263
C       -0.3093219660   -1.9681595558   -1.2079524859
C        5.0132841297   -1.1679868375    0.1026018255
C        0.0375489332   -1.5287135487    0.0808218599
C        2.5397663119   -1.5007662714   -0.2131474264
N        3.6645217737   -1.1429989785    0.5229282260
N        1.3653640897   -1.2896223523    0.4981236528
O        2.5820815283   -1.9575160928   -1.3499834377
H        8.8013770479   -1.1645124398   -0.8277706063
H       -3.7095161773   -2.0962807988   -0.8475948018
H        7.9989921571    0.0817388763    1.1825477729
H        7.1554320829   -2.4032594622   -2.2279742261
H       -3.0850207837   -1.3149761268    1.4416418625
H       -1.9133618268   -2.5068078481   -2.5237191929
H        5.6015450134    0.0854595848    1.7663187678
H        4.7495461078   -2.4043691204   -1.6443208460
H       -0.7162383334   -0.9562123667    2.0276717139
H        0.4661202110   -2.1511020920   -1.9382283826
H        3.5126131419   -0.6497624201    1.3929632637
H        1.4497526887   -0.9834020104    1.4584076465
28   
torsion grid (180,)
C        7.7543002761   -1.1937094220   -0.5367303901
C       -2.6703112765   -2.0306758477   -0.5344470433
C        7.3179039967   -0.6500764074    0.6759471298
C        6.8072778496   -1.6983641429   -1.4323127541
C       -2.3255482965   -1.4265090189    0.6790942101
C       -1.6553640547   -2.3774639147   -1.4306770726
C        5.9580043337   -0.6147477377    0.9815053757
C        5.4404194957   -1.6707710334   -1.1418688517
C       -0.9884538377   -1.1761765269    0.9848043882
C       -0.3101436035   -2.1339684505   -1.1400037772
C        5.0074035421   -1.1236055862    0.0777858855
C        0.0306450968   -1.5265574743    0.0803915329
C        2.5308841571   -1.4732556817   -0.2324666015
N        3.6524588670   -1.0474259863    0.4682290933
N        1.3564154544   -1.2371314602    0.4711306725
O        2.5726032395   -1.9958073558   -1.3411114166
H        8.8131781548   -1.2227025916   -0.7777863368
H       -3.7112115394   -2.2269433360   -0.7756441110
H        8.0353485842   -0.2514673073    1.3884982145
H        7.1311981215   -2.1239645352   -2.3787513500
H       -3.0970601738   -1.1478045161    1.3921423193
H       -1.9078026985   -2.8477849250   -2.3777140409
H        5.6298479295   -0.1889951064    1.9287940313
H        4.7150242852   -2.0630175184   -1.8403741922
H       -0.7318746785   -0.7049430670    1.9326537388
H        0.4682645747   -2.4056186083   -1.8387621226
H        3.5065092310   -0.6261308899    1.3760182738
H        1.4339935109   -0.8023316079    1.3809622548
