23   
torsion grid (-165,)
C        1.2743249671   -1.8513627886   -0.5122181195
C        0.7392956672   -0.5957307941    0.2015401843
C        0.4545298673   -0.9244358145    1.6788592597
C        1.8133479160    0.5063769857    0.1312033516
C       -0.5377257342   -0.0678450736   -0.4969624264
C       -1.7793956807   -0.9712436972   -0.4506180604
C       -2.8489550734   -0.5391602454   -1.4613116702
H        1.4738331299   -1.6473628463   -1.5708439731
H        0.5690729192   -2.6866783822   -0.4582988357
H        2.2123952218   -2.1854028590   -0.0541841598
H        0.0451478295   -0.0535350435    2.2045706430
H       -0.2632581891   -1.7449061522    1.7796109408
H        1.3739786261   -1.2242962245    2.1949641653
H        1.4825747730    1.4142796349    0.6488861302
H        2.7486206952    0.1763496621    0.5982043095
H        2.0352650461    0.7758857381   -0.9081148293
H       -0.7977173258    0.9082650178   -0.0646692171
H       -0.2868004267    0.1279875110   -1.5491642829
H       -2.2059168470   -0.9689338661    0.5591966319
H       -1.4982553303   -2.0094639419   -0.6620158736
H       -3.7410174577   -1.1718108348   -1.3963847898
H       -3.1626835277    0.4974568943   -1.2896448288
H       -2.4669241719   -0.6023930482   -2.4866732266
23   
torsion grid (-150,)
C        1.1734105267   -1.8378599411   -0.5585529527
C        0.7202173394   -0.6148150950    0.2603032541
C        0.5120823130   -1.0223638786    1.7308395564
C        1.8204731206    0.4608092859    0.1882041535
C       -0.5814934842   -0.0152652880   -0.3255488504
C       -1.8464891673   -0.8915561767   -0.2419502609
C       -2.8233499574   -0.6258222589   -1.3939496853
H        1.3335448340   -1.5693147660   -1.6093877783
H        0.4396173505   -2.6495729246   -0.5282252444
H        2.1170334852   -2.2357598994   -0.1680001478
H        0.1770993315   -0.1683443645    2.3314666296
H       -0.2373368853   -1.8145503252    1.8286255162
H        1.4457593489   -1.3935902793    2.1692340969
H        1.5501810473    1.3429711649    0.7801013899
H        2.7727591274    0.0779671295    0.5733677246
H        1.9851948098    0.7886132341   -0.8449947772
H       -0.7795935834    0.9477498837    0.1632660529
H       -0.3873528254    0.2213615823   -1.3810483883
H       -2.3499809516   -0.7324846976    0.7185886514
H       -1.5725298241   -1.9523871156   -0.2646362546
H       -3.7319751887   -1.2306363821   -1.2984054574
H       -3.1263961446    0.4276339895   -1.4256560998
H       -2.3600911856   -0.8646047612   -2.3580698077
23   
torsion grid (-135,)
C        1.1102041966   -1.7519447912   -0.5795587404
C        0.7366352732   -0.5643825049    0.3269926473
C        0.5896070754   -1.0442567900    1.7829864843
C        1.8637267669    0.4831030534    0.2571088732
C       -0.5739618534    0.1005869285   -0.1599630196
C       -1.8522489981   -0.7685659609   -0.1109198450
C       -2.6949960701   -0.6627492553   -1.3879216469
H        1.2327884158   -1.4274110473   -1.6195768063
H        0.3493972126   -2.5389843579   -0.5623857452
H        2.0553123904   -2.2033417073   -0.2565808577
H        0.3267864399   -0.2110772763    2.4455204573
H       -0.1883908245   -1.8081654405    1.8824316743
H        1.5278192771   -1.4783608753    2.1477255993
H        1.6450002916    1.3427607865    0.9011623513
H        2.8197707461    0.0562267953    0.5819306199
H        1.9941144326    0.8555496556   -0.7657534981
H       -0.7341345421    1.0189595334    0.4189616333
H       -0.4087730476    0.4285748932   -1.1952057503
H       -2.4608657412   -0.4921016264    0.7574917199
H       -1.5897277854   -1.8215447277    0.0375068535
H       -3.6053148144   -1.2691343194   -1.3212716074
H       -2.9976183200    0.3732774762   -1.5810612571
H       -2.1241176632   -1.0071814121   -2.2579370040
23   
torsion grid (-120,)
C        0.9502129935   -1.3561368865   -0.4664289526
C        0.6853102258   -0.2433173766    0.5648196182
C        0.6392017054   -0.8442236517    1.9819608361
C        1.8341358441    0.7803586905    0.4965326957
C       -0.6386623265    0.4913596394    0.2406233166
C       -1.9260010330   -0.3705193248    0.2351041046
C       -2.6461432952   -0.3685341617   -1.1193203012
H        1.0054309481   -0.9449709717   -1.4812106841
H        0.1644842122   -2.1186551901   -0.4571884882
H        1.9004106747   -1.8612541680   -0.2580283580
H        0.4575078347   -0.0654152354    2.7319819557
H       -0.1511196911   -1.5951469151    2.0824992982
H        1.5895795577   -1.3314121215    2.2290012056
H        1.6859437527    1.5899509074    1.2206946965
H        2.7979493144    0.3068316562    0.7169411718
H        1.9031132669    1.2311029433   -0.5003836509
H       -0.7502150593    1.3158750271    0.9558247469
H       -0.5241204598    0.9662711921   -0.7426961997
H       -2.6156529161   -0.0141048081    1.0085417958
H       -1.6948806834   -1.4059321358    0.5061714651
H       -3.5536976293   -0.9822938444   -1.0941102774
H       -2.9374313059    0.6473951173   -1.4103107018
H       -1.9953476280   -0.7638516195   -1.9078952049
23   
torsion grid (-105,)
C        0.8075734099   -1.5030451244   -0.5377119030
C        0.6193281574   -0.3874662808    0.5069097758
C        0.6078838411   -0.9999919307    1.9200446026
C        1.8004569734    0.5959713354    0.4045490036
C       -0.6889530728    0.4005707398    0.2457503102
C       -1.9988688134   -0.4215141788    0.1939564659
C       -2.5445086927   -0.6163949801   -1.2272918562
H        0.8250877192   -1.0929533831   -1.5540921331
H        0.0044343041   -2.2456386202   -0.4892666715
H        1.7541079174   -2.0312060262   -0.3740748104
H        0.4921513032   -0.2220994737    2.6838797212
H       -0.2077405301   -1.7188192713    2.0492838366
H        1.5464956400   -1.5292494095    2.1209606772
H        1.6982700810    1.4130880624    1.1283105427
H        2.7528958243    0.0907593302    0.6029953590
H        1.8591689077    1.0401406375   -0.5959242253
H       -0.7689445163    1.1676204216    1.0263746655
H       -0.5770306589    0.9489820147   -0.6989464201
H       -2.7666330725    0.0802303461    0.7941940033
H       -1.8558325847   -1.4006409289    0.6637385286
H       -3.4679103449   -1.2065960965   -1.2241137846
H       -2.7675077870    0.3495190272   -1.6949865447
H       -1.8203406940   -1.1324720490   -1.8666576199
23   
torsion grid (-90,)
C        0.8893051595   -1.4711201314   -0.6007004044
C        0.7599171610   -0.3778555362    0.4749219081
C        0.7763295298   -1.0361162150    1.8679839046
C        1.9686939636    0.5714958124    0.3640500066
C       -0.5261524484    0.4712638237    0.2981886116
C       -1.8818403054   -0.2641352454    0.2348295921
C       -2.3288193900   -0.6767554755   -1.1754199478
H        0.8373435738   -1.0472314601   -1.6098952464
H        0.1016937789   -2.2253037307   -0.5085760780
H        1.8509467812   -1.9887652980   -0.5046704468
H        0.7164699153   -0.2815021954    2.6609866650
H       -0.0607684781   -1.7291741034    2.0016080470
H        1.7006288782   -1.6060146755    2.0175391262
H        1.9104126350    1.3754002466    1.1071751064
H        2.9092651584    0.0326534161    0.5273448323
H        2.0163511554    1.0355939295   -0.6279649555
H       -0.5514523545    1.1858459857    1.1309669905
H       -0.4186720474    1.0789578467   -0.6110997169
H       -2.6515943894    0.3953195867    0.6533752533
H       -1.8663343202   -1.1453252064    0.8872833492
H       -3.3156393953   -1.1526828475   -1.1488748131
H       -2.4022274675    0.1998983249   -1.8298654213
H       -1.6350017496   -1.3787461209   -1.6441332724
23   
torsion grid (-75,)
C        0.9749854233   -1.3015335143   -0.7546248895
C        0.7388672549   -0.3446637179    0.4301888535
C        0.6064602259   -1.1610196718    1.7283470589
C        1.9667123731    0.5815524296    0.5486556710
C       -0.5019029881    0.5633972596    0.2182209910
C       -1.9156143522   -0.0453199695    0.2809170386
C       -2.3583405979   -0.8778887961   -0.9308511790
H        0.9969057336   -0.7570207108   -1.7056625363
H        0.2009071741   -2.0690048068   -0.8255856388
H        1.9361891467   -1.8170829809   -0.6432621481
H        0.4086290651   -0.5098750609    2.5881513453
H       -0.2056990357   -1.8926967622    1.6674325853
H        1.5308105281   -1.7133705905    1.9332436840
H        1.8717073473    1.2596307337    1.4046128214
H        2.8865418027    0.0004379786    0.6814895005
H        2.0861217609    1.1949678191   -0.3522833836
H       -0.4553824469    1.3447977327    0.9886356123
H       -0.3867937120    1.0856670536   -0.7421054611
H       -2.6157387147    0.7935172785    0.3836799957
H       -2.0316386970   -0.6355789353    1.1972816451
H       -3.4326400396   -1.0881628993   -0.8815767225
H       -2.1674683492   -0.3410913232   -1.8675407367
H       -1.8424324642   -1.8391691041   -0.9915284256
23   
torsion grid (-60,)
C        0.9020809110   -1.2510148438   -0.9706769846
C        0.6274804119   -0.4017201828    0.2865004575
C        0.4341306711   -1.3211598335    1.5058108007
C        1.8624784387    0.4902912972    0.5297571714
C       -0.5944871517    0.5382265249    0.0985369160
C       -2.0208535991   -0.0299191199    0.2215175019
C       -2.4215866462   -1.1460686059   -0.7523071050
H        1.0401104885   -0.6119324168   -1.8506406762
H        0.0926323529   -1.9495547713   -1.1902363872
H        1.8185975033   -1.8386988343   -0.8408189895
H        0.2211938879   -0.7391286879    2.4102952643
H       -0.3912857887   -2.0250560278    1.3593723485
H        1.3398159856   -1.9092996190    1.6939663211
H        1.7543647121    1.0751287944    1.4504439117
H        2.7729878595   -0.1134213681    0.6200748136
H        2.0090663181    1.1939845089   -0.2982976864
H       -0.5116746193    1.3404050808    0.8438795286
H       -0.4937632903    1.0304549869   -0.8791802473
H       -2.7098782488    0.8132629085    0.0849322218
H       -2.1853530718   -0.3793427469    1.2483025563
H       -3.5002394988   -1.3311120630   -0.6972794381
H       -2.1821841641   -0.8800823450   -1.7883675420
H       -1.9198289599   -2.0910075914   -0.5273870969
23   
torsion grid (-45,)
C        0.8884782256   -1.2465030541   -1.0544950300
C        0.6657028041   -0.4131945744    0.2228439993
C        0.4965795436   -1.3411334190    1.4407363959
C        1.9255901954    0.4519252980    0.4402896485
C       -0.5369307322    0.5592602613    0.0971945316
C       -1.9893103864    0.0335887134    0.1392367673
C       -2.3493619102   -1.2131327800   -0.6797532128
H        0.9724410848   -0.5976452679   -1.9341507334
H        0.0843862907   -1.9594691879   -1.2409581695
H        1.8211398610   -1.8172723331   -0.9741586976
H        0.3546848129   -0.7594025231    2.3592498912
H       -0.3642355751   -2.0077341585    1.3334432194
H        1.3851078977   -1.9683857601    1.5783622359
H        1.8498213478    1.0399165621    1.3621351287
H        2.8231858024   -0.1729531042    0.5135645608
H        2.0723134693    1.1510212970   -0.3915823038
H       -0.4494607303    1.3071522558    0.8957561282
H       -0.3981001626    1.1153691661   -0.8412079876
H       -2.6390024374    0.8612032087   -0.1705587514
H       -2.2558261651   -0.1700002923    1.1849199763
H       -3.4304409524   -1.3874005503   -0.6352943812
H       -2.0771932935   -1.1030614423   -1.7354261786
H       -1.8605059032   -2.1133742179   -0.3002897973
23   
torsion grid (-30,)
C        0.9795125209   -1.1343780951   -1.1129297719
C        0.8247138289   -0.3375107400    0.1968015016
C        0.6995589732   -1.2973006560    1.3962815808
C        2.1070872792    0.5022415844    0.3854714290
C       -0.3609174442    0.6625307630    0.1584716929
C       -1.8398865708    0.1921254627    0.0982573299
C       -2.2029610345   -1.1319866964   -0.5889266174
H        0.9870875967   -0.4643353745   -1.9806574792
H        0.1837461494   -1.8652052473   -1.2603660667
H        1.9294124044   -1.6818005031   -1.1092423344
H        0.6317699489   -0.7378842348    2.3368256640
H       -0.1864329991   -1.9342317909    1.3253774301
H        1.5744833650   -1.9546943114    1.4629933549
H        2.0688234968    1.0853603161    1.3127008504
H        2.9927651142   -0.1418632698    0.4308985692
H        2.2462813051    1.2034689420   -0.4457533216
H       -0.2696827971    1.3212831761    1.0307906706
H       -0.1783566926    1.3094794028   -0.7112452150
H       -2.4209050579    0.9991986774   -0.3627812483
H       -2.2134591851    0.1213086225    1.1284358339
H       -3.2882747108   -1.2782542024   -0.5440911775
H       -1.9166519663   -1.1446670828   -1.6457798351
H       -1.7394155734   -1.9941036839   -0.1048523904
23   
torsion grid (-15,)
C        1.0333004040   -0.9019498851   -0.8575628055
C        0.8324616827   -0.1869012385    0.4922001576
C        0.7227215280   -1.2184901290    1.6324920952
C        2.0850602749    0.6783171207    0.7546806484
C       -0.3793819623    0.7834210357    0.4899096665
C       -1.8483579219    0.3207725695    0.2333320089
C       -2.1551827855   -1.0604771244   -0.3660189527
H        0.9945490897   -0.1893771216   -1.6899407580
H        0.2843383920   -1.6736007697   -1.0394592552
H        2.0155139273   -1.3883569338   -0.8833088176
H        0.6316362476   -0.7168600218    2.6031418890
H       -0.1431485132   -1.8751798098    1.5162839824
H        1.6156484248   -1.8537980226    1.6693458054
H        1.9990860302    1.2291340898    1.6983889317
H        2.9843615187    0.0544142517    0.8119097610
H        2.2362424089    1.4097627804   -0.0477710185
H       -0.3666510631    1.3151967458    1.4486988815
H       -0.1407359256    1.5476681840   -0.2617692419
H       -2.3310416278    1.0781527376   -0.3942113708
H       -2.3803875589    0.3647327309    1.1919035296
H       -3.2415220959   -1.2021676064   -0.4001528772
H       -1.7847602238   -1.1635312339   -1.3901957429
H       -1.7403340004   -1.8787837637    0.2262866043
23   
torsion grid (0,)
C        1.0978906104   -0.8938050122   -1.0717172765
C        0.8741861586   -0.2331585987    0.3020423481
C        0.7673473316   -1.3089406615    1.3997657648
C        2.1147329651    0.6341752373    0.6136087181
C       -0.3422655294    0.7333787385    0.3017325678
C       -1.8185141265    0.2878864605    0.0292552535
C       -2.1836067855   -1.1758160594   -0.2656912701
H        1.1303783713   -0.1406515272   -1.8678660175
H        0.3148819375   -1.6123635576   -1.3207280233
H        2.0524339543   -1.4330876932   -1.0860395876
H        0.5632539881   -0.8534327314    2.3759884413
H       -0.0220305020   -2.0347809587    1.1960895386
H        1.7085749948   -1.8650637711    1.4834255292
H        2.0218668412    1.1252715566    1.5891806483
H        3.0232069907    0.0214348720    0.6328437885
H        2.2541017963    1.4152209932   -0.1427548022
H       -0.3288155156    1.2350824665    1.2770764034
H       -0.1012198242    1.5205932426   -0.4231043705
H       -2.1940690884    0.8852419198   -0.8094582210
H       -2.4213124239    0.5991322845    0.8901226957
H       -3.2661733965   -1.2465018385   -0.4224627872
H       -1.7037994966   -1.5569676916   -1.1701300162
H       -1.9352443073   -1.8476303946    0.5592224151
23   
torsion grid (15,)
C        1.1050806262   -0.6830313502   -1.3528007340
C        0.8872190561   -0.0587242929    0.0397305718
C        0.7716493752   -1.1626978376    1.1080329267
C        2.1319300885    0.7915230088    0.3779226378
C       -0.3227922674    0.9138402601    0.0399056162
C       -1.7904460639    0.4573532837   -0.2346161671
C       -2.1846357755   -1.0271632608   -0.1891415107
H        1.2426677247    0.0967081481   -2.1112047777
H        0.2623146847   -1.3045709113   -1.6656761117
H        2.0011439858   -1.3149404644   -1.3596758428
H        0.5028678009   -0.7398317305    2.0832508505
H        0.0282096512   -1.9185064681    0.8520254977
H        1.7330498474   -1.6768960247    1.2234371409
H        2.0502839262    1.2325118860    1.3782493762
H        3.0400910868    0.1782890800    0.3562054368
H        2.2632342738    1.6097981717   -0.3393963704
H       -0.3091224595    1.3971968750    1.0259235482
H       -0.0910996549    1.7151840970   -0.6717196852
H       -2.0668918244    0.8179191176   -1.2333232219
H       -2.4432907104    1.0036422307    0.4551587299
H       -3.2389744972   -1.1259705977   -0.4719510868
H       -1.6044656257   -1.6390537017   -0.8830768687
H       -2.0779517961   -1.4576714456    0.8108901774
23   
torsion grid (30,)
C        1.2037190207   -1.9023773220    0.1905774927
C        0.8787666351   -0.4006676717    0.0685648705
C       -0.0054604083    0.0533975119    1.2459873613
C        2.2052236213    0.3860073958    0.1517284406
C        0.2550056842   -0.0770715434   -1.3147215792
C       -1.0360593989   -0.7736967495   -1.8247418381
C       -2.1023695028   -1.2511550237   -0.8285820303
H        1.8676918262   -2.2239646372   -0.6205247684
H        0.3053592266   -2.5244169575    0.1492649007
H        1.7102294185   -2.1162312405    1.1391675855
H       -0.3103660545    1.0996611748    1.1262764465
H       -0.9080922101   -0.5487689647    1.3543440748
H        0.5531783968   -0.0229784768    2.1862447148
H        2.0302999246    1.4654258293    0.0724395647
H        2.7113115889    0.1988972010    1.1057852867
H        2.8906873400    0.0977952687   -0.6534541932
H        0.0743357849    1.0071962920   -1.3149400619
H        1.0284302401   -0.2396396506   -2.0753824071
H       -0.7361714429   -1.6553281451   -2.4066633789
H       -1.5072638871   -0.0988208275   -2.5486307115
H       -2.9391253429   -1.6966672497   -1.3787353876
H       -1.7226356210   -2.0123795902   -0.1439016053
H       -2.5083774440   -0.4303188522   -0.2282005408
23   
torsion grid (45,)
C        1.0634758548   -2.0217625817    0.0848249929
C        0.7515912863   -0.5146964611    0.0183810348
C       -0.0730484382   -0.0869740624    1.2482796048
C        2.0853723020    0.2614555645    0.0589689083
C        0.0557566291   -0.1523775791   -1.3203957219
C       -1.1716414799   -0.9489075981   -1.8169228851
C       -2.2900324201   -1.2826335069   -0.8206672736
H        1.6651372321   -2.3352331573   -0.7765414595
H        0.1541020027   -2.6299000448    0.0937478034
H        1.6306420246   -2.2621288498    0.9916965048
H       -0.3334593952    0.9765063880    1.1929945522
H       -0.9995562685   -0.6525574427    1.3548270788
H        0.5105562355   -0.2375142609    2.1641578415
H        1.9151324328    1.3421713120   -0.0141479333
H        2.6224229506    0.0706377082    0.9952837126
H        2.7407837649   -0.0308563712   -0.7694413458
H       -0.2248922061    0.9087747560   -1.2546470847
H        0.8094086651   -0.2065320780   -2.1164927386
H       -0.8208873342   -1.8956647693   -2.2488436257
H       -1.6001559333   -0.3875597625   -2.6561387010
H       -3.1320543412   -1.7447047830   -1.3484620408
H       -1.9636314106   -1.9873073983   -0.0523541696
H       -2.6698921101   -0.3875458803   -0.3155314622
23   
torsion grid (60,)
C        1.0602627423   -2.0731091499    0.0080961345
C        0.7633505452   -0.5633987490   -0.0376070062
C       -0.0150417501   -0.1449503576    1.2258043479
C        2.1013528052    0.2045970290   -0.0408856451
C        0.0068686584   -0.1838426025   -1.3398000865
C       -1.1660083671   -1.0571683975   -1.8236353033
C       -2.3673197059   -1.2094667966   -0.8811029209
H        1.6001306681   -2.3974115675   -0.8894366065
H        0.1437407647   -2.6673181422    0.0797167342
H        1.6814789186   -2.3187843867    0.8771823829
H       -0.2376631480    0.9283519804    1.2091793563
H       -0.9607210150   -0.6794741383    1.3323235628
H        0.5803702456   -0.3460620089    2.1242902168
H        1.9345999922    1.2855512690   -0.1188497120
H        2.6643649552    0.0192326005    0.8812374406
H        2.7307221702   -0.0984543503   -0.8855403685
H       -0.3443843342    0.8525563455   -1.2355716611
H        0.7418348060   -0.1668186101   -2.1555322256
H       -0.7921770563   -2.0547256779   -2.0855019524
H       -1.5182743737   -0.6194044951   -2.7663112387
H       -3.2044945551   -1.6852273089   -1.4041242424
H       -2.1347854856   -1.8302963292   -0.0117595101
H       -2.7145549843   -0.2371898678   -0.5128792356
23   
torsion grid (75,)
C        1.3678276639   -2.0758064674   -0.0931057341
C        0.9483774788   -0.5950224581   -0.0702232238
C        0.1515865665   -0.3083402590    1.2174386044
C        2.2180060807    0.2808862095   -0.0517335681
C        0.1542638097   -0.2246731510   -1.3513326161
C       -1.0562697685   -1.0779933977   -1.7750067364
C       -2.3450996502   -0.8919171243   -0.9614635422
H        1.9133076399   -2.3195617816   -1.0125755390
H        0.5031996675   -2.7443143987   -0.0284523235
H        2.0234751787   -2.3046765002    0.7549758893
H       -0.2281890387    0.7198164539    1.2279956695
H       -0.7006933661   -0.9816630746    1.3336277335
H        0.7911607934   -0.4366981843    2.0986732782
H        1.9614844519    1.3469180116   -0.0527659729
H        2.8195874802    0.0828984445    0.8428756802
H        2.8468509799    0.0874971278   -0.9284510223
H       -0.1671070021    0.8230970428   -1.2668285804
H        0.8703780551   -0.2494067143   -2.1837135190
H       -0.7813363826   -2.1389470978   -1.7945051417
H       -1.2781027165   -0.8149644027   -2.8171142894
H       -3.1897719208   -1.3786371509   -1.4618581545
H       -2.2738505654   -1.3178777328    0.0422216482
H       -2.5911227066    0.1708782435   -0.8523323825
23   
torsion grid (90,)
C        1.6146628733   -2.0435863887   -0.1377122413
C        0.9807000789   -0.6417938016   -0.0524680220
C        0.1270286369   -0.5515266245    1.2250409099
C        2.1085070256    0.4050407096    0.0305429023
C        0.1556406277   -0.3476529635   -1.3326908759
C       -1.1221444371   -1.1768316426   -1.5825780760
C       -2.4067228350   -0.5810106756   -0.9878471327
H        2.2557442413   -2.1328569382   -1.0225422090
H        0.8564226261   -2.8315862479   -0.1928981942
H        2.2327083500   -2.2448086061    0.7449029132
H       -0.3781152279    0.4179910600    1.3006757642
H       -0.6361098077   -1.3351775628    1.2585371695
H        0.7573401775   -0.6703030085    2.1141595984
H        1.7005179595    1.4177355928    0.1292626069
H        2.7560296478    0.2189757083    0.8952882012
H        2.7360993725    0.3832035056   -0.8680920013
H       -0.1164578969    0.7170588609   -1.3333202874
H        0.8343261068   -0.4806233217   -2.1850360117
H       -0.9879751872   -2.2009179297   -1.2142332896
H       -1.2645594590   -1.2726295770   -2.6656861422
H       -3.2768245645   -1.1974519816   -1.2407271029
H       -2.3635625711   -0.4996714131    0.1009076064
H       -2.5871378207    0.4245057040   -1.3860893598
23   
torsion grid (105,)
C        1.5285128710   -2.1064974110   -0.2825975511
C        0.8903654591   -0.7118927220   -0.1407708498
C        0.0927374018   -0.6405583947    1.1744813137
C        2.0122890153    0.3428243644   -0.1013808085
C       -0.0188790559   -0.4042433534   -1.3570903600
C       -1.2808242815   -1.2840779140   -1.5237362477
C       -2.5822820536   -0.5689973374   -1.1357726517
H        2.1171637365   -2.1766267727   -1.2048378520
H        0.7763517751   -2.9017317035   -0.3052944351
H        2.1994018525   -2.3134525167    0.5591570012
H       -0.3681969267    0.3455625714    1.3033854384
H       -0.7042768095   -1.3905274531    1.2082429701
H        0.7481152654   -0.8182033493    2.0350515313
H        1.6018217247    1.3518633227    0.0212462928
H        2.6992582637    0.1572019080    0.7325122443
H        2.5992640189    0.3302443437   -1.0272614818
H       -0.3258131338    0.6484521077   -1.2991445921
H        0.6034083881   -0.4826815370   -2.2575039517
H       -1.1860443886   -2.2051222790   -0.9384685095
H       -1.3618202608   -1.6091432348   -2.5674159092
H       -3.4517834808   -1.2240885347   -1.2616345467
H       -2.5613434961   -0.2384468888   -0.0918176980
H       -2.7401392531    0.3185077314   -1.7593695974
23   
torsion grid (120,)
C        1.5895002347   -2.0560645559   -0.3683808554
C        0.9754563086   -0.6565844645   -0.1789107686
C        0.2516953533   -0.5827806306    1.1785691512
C        2.1067362042    0.3885456504   -0.1957669126
C       -0.0038654302   -0.3296939855   -1.3329615374
C       -1.2354962941   -1.2578369708   -1.4804567647
C       -2.5699745406   -0.5135645267   -1.3451245954
H        2.1155879037   -2.1264357135   -1.3277431992
H        0.8288330191   -2.8431387310   -0.3464610101
H        2.3122434429   -2.2745149170    0.4263010101
H       -0.1769789054    0.4131597094    1.3404957631
H       -0.5618601342   -1.3122043505    1.2491148648
H        0.9468148733   -0.7855951283    2.0014459563
H        1.7108687580    1.4016973290   -0.0594284742
H        2.8290997231    0.2008296349    0.6071645989
H        2.6510454004    0.3667805800   -1.1471130789
H       -0.3509700924    0.7025556986   -1.1930938674
H        0.5682789378   -0.3247934492   -2.2691253947
H       -1.2042611789   -2.0574416787   -0.7330460617
H       -1.2047249157   -1.7653120655   -2.4512197977
H       -3.4230900612   -1.1926301061   -1.4549299966
H       -2.6496029865   -0.0303636685   -0.3643932349
H       -2.6649903873    0.2687408666   -2.1071012784
23   
torsion grid (135,)
C        1.4200489624   -2.0441156691   -0.2057603619
C        0.8202283988   -0.6651615694    0.1266775333
C        0.2225570274   -0.6835210090    1.5458832447
C        1.9391479755    0.3921618614    0.0763702986
C       -0.2594059709   -0.2782252496   -0.9133432260
C       -1.4522983045   -1.2501781485   -1.0687955146
C       -2.8052970359   -0.5301029584   -1.1239312926
H        1.8543308169   -2.0501262722   -1.2125260308
H        0.6656385913   -2.8364199014   -0.1628026242
H        2.2147061041   -2.3054076592    0.5027376737
H       -0.1979919806    0.2948537999    1.8064743048
H       -0.5738185640   -1.4277424977    1.6482235599
H        0.9928964221   -0.9245315380    2.2873643923
H        1.5486318991    1.3916893651    0.3008844405
H        2.7260440195    0.1689068526    0.8062361987
H        2.4037229641    0.4292450560   -0.9158254148
H       -0.6439528884    0.7115503635   -0.6321695072
H        0.2285703435   -0.1401099340   -1.8864929650
H       -1.4768711068   -1.9575501417   -0.2328930540
H       -1.3226065609   -1.8625082881   -1.9683605059
H       -3.6325372986   -1.2364996455   -1.2562282726
H       -2.9844400802    0.0283588189   -0.1979234830
H       -2.8421804136    0.1860244407   -1.9534103905
23   
torsion grid (150,)
C        1.3373867232   -2.0160559349   -0.2456284523
C        0.7539572345   -0.6555863396    0.1793729503
C        0.2573294642   -0.7352245236    1.6349714531
C        1.8595889846    0.4135688486    0.0944341067
C       -0.3960836037   -0.2385963962   -0.7696581056
C       -1.5608158891   -1.2355853014   -0.9261828455
C       -2.8949408498   -0.5397462797   -1.2226500057
H        1.6870444906   -1.9862178616   -1.2844571383
H        0.5952742160   -2.8170410823   -0.1653629889
H        2.1902200579   -2.2899760764    0.3863484176
H       -0.1576428853    0.2256610958    1.9613304472
H       -0.5182008379   -1.4966961861    1.7652169433
H        1.0818304671   -0.9897409664    2.3107670884
H        1.4758372256    1.4016495893    0.3746479858
H        2.6919117229    0.1751243228    0.7668557367
H        2.2613007507    0.4867631783   -0.9228564412
H       -0.7974829493    0.7149660148   -0.3990375520
H        0.0236380760   -0.0193205963   -1.7602810719
H       -1.6792023780   -1.8241151163   -0.0093686913
H       -1.3323160065   -1.9577044344   -1.7185051700
H       -3.7035338252   -1.2649808817   -1.3666672125
H       -3.1793888361    0.1215799020   -0.3962780784
H       -2.8325343477    0.0737843213   -2.1294565636
23   
torsion grid (165,)
C        1.2922781986   -1.9330905468   -0.3274494061
C        0.7395920582   -0.5962205651    0.2006864088
C        0.3567326609   -0.7468854048    1.6849495366
C        1.8342490150    0.4810862477    0.0810465211
C       -0.4788114563   -0.1388733833   -0.6381713905
C       -1.6557041867   -1.1202507629   -0.7469861056
C       -2.9282346752   -0.4437959680   -1.2716091871
H        1.5468337224   -1.8614490887   -1.3916409027
H        0.5674791356   -2.7451250440   -0.2099375468
H        2.2008401975   -2.2198628702    0.2147161432
H       -0.0520371385    0.1893836103    2.0829646778
H       -0.3903651953   -1.5318285236    1.8390574959
H        1.2353255925   -1.0093380819    2.2854054529
H        1.4729885240    1.4526536240    0.4382752669
H        2.7171559708    0.2140792178    0.6734366605
H        2.1543902125    0.6054077355   -0.9599855581
H       -0.8473663773    0.8027245955   -0.2068898323
H       -0.1350882463    0.1104798616   -1.6515524940
H       -1.8724464607   -1.5591119836    0.2338576970
H       -1.3863416070   -1.9556845305   -1.4036029977
H       -3.7504266949   -1.1605596279   -1.3740195709
H       -3.2582358202    0.3501547204   -0.5918634531
H       -2.7598444613    0.0124353179   -2.2544459132
23   
torsion grid (180,)
C        1.3679901914   -1.8217713427   -0.4278939523
C        0.8000226235   -0.5244743787    0.1774724482
C        0.4828304705   -0.7493546558    1.6677202916
C        1.8608514815    0.5863353811    0.0570879276
C       -0.4627233065   -0.0645072053   -0.5913885457
C       -1.6610191793   -1.0227384836   -0.6053622876
C       -2.8448091772   -0.4531864968   -1.3970670469
H        1.5728488120   -1.7011304571   -1.4983148759
H        0.6769102211   -2.6625155911   -0.3106859693
H        2.3082544516   -2.0986311053    0.0627851218
H        0.0448198774    0.1493768442    2.1180089089
H       -0.2202266539   -1.5754212214    1.8143156375
H        1.3949375595   -0.9914575499    2.2253600199
H        1.4973178624    1.5280781785    0.4846787622
H        2.7810898489    0.3118257609    0.5857374174
H        2.1202028973    0.7732072474   -0.9915727879
H       -0.7902974441    0.8963641690   -0.1697167344
H       -0.1737656884    0.1466343034   -1.6307620061
H       -1.9848095993   -1.2341464012    0.4203624447
H       -1.3677522296   -1.9845528361   -1.0419090882
H       -3.6936029849   -1.1457582284   -1.4019345818
H       -3.1893004110    0.4941022493   -0.9659622452
H       -2.5662567352   -0.2591437890   -2.4394896947
