22   
torsion grid (-90,)
C        1.8886870263   -1.0057406548    0.0854019967
C        2.9965869753   -1.6726421599    2.1227034936
C        0.8070291405   -0.5402836071    0.8258632725
C        1.9176931094   -1.2066000818    2.8700830993
C        3.0119772847   -1.5794214631    0.7171871480
C        0.7970850965   -0.6445332593    2.2343946185
C        4.5732802929   -1.7710036339   -1.3281190597
C        4.1851795102   -2.0392184235   -0.0362247116
C       -1.4315880462   -0.6573513970    2.9150787192
N       -0.2633472500   -0.1363308240    3.0042421079
N       -1.8180952387   -1.7903820089    2.2434081932
O       -2.4669766458   -0.1146852331    3.6095103082
H        1.8947190894   -0.8874610215   -0.9950451691
H        3.8514681217   -2.1086064857    2.6355214388
H       -0.0277528993   -0.0530235187    0.3268120208
H        1.9254900707   -1.2683283451    3.9546114333
H        5.6709037763   -1.7419497304   -1.3736990455
H        4.3242143697   -2.3161885615   -2.2411013141
H        5.0385051470   -2.0507308063    0.6518240169
H       -2.8071960775   -1.8909025228    2.0563182635
H       -1.1900524249   -2.1190542750    1.5211006392
H       -2.0871438169    0.6480333697    4.0826074275
22   
torsion grid (-75,)
C        1.9194423216   -0.9791191581    0.0957049093
C        3.0045091095   -1.6589324382    2.1402670215
C        0.8286198683   -0.5219945674    0.8286407868
C        1.9171690391   -1.1992720518    2.8801406396
C        3.0347319255   -1.5570801823    0.7360708935
C        0.8030521538   -0.6350278517    2.2359253450
C        4.5606929895   -1.7935423935   -1.3101606730
C        4.2152467958   -2.0173683670   -0.0071705847
C       -1.4298936685   -0.6693890418    2.8993040786
N       -0.2687281832   -0.1345982215    2.9963061361
N       -1.7976712265   -1.8078271741    2.2257110848
O       -2.4771897179   -0.1381421208    3.5849248181
H        1.9346755456   -0.8526873970   -0.9836953526
H        3.8539076640   -2.0985922032    2.6590706719
H       -0.0023761219   -0.0341115725    0.3239569102
H        1.9134316677   -1.2689405624    3.9642339103
H        5.6439199381   -1.8388979296   -1.4646932490
H        4.1125366814   -2.2686873699   -2.1848613655
H        5.0786512954   -2.0552848534    0.6655672300
H       -2.7839266953   -1.9185653932    2.0294526536
H       -1.1602161704   -2.1277465947    1.5076656003
H       -2.1099186002    0.6294028003    4.0601174321
22   
torsion grid (-60,)
C        1.9505132834   -0.9497303265    0.1058477030
C        3.0127400112   -1.6430775716    2.1554631401
C        0.8501550504   -0.5007300800    0.8304244169
C        1.9166280564   -1.1908664692    2.8875941445
C        3.0583163639   -1.5332378740    0.7526404084
C        0.8086202534   -0.6239005652    2.2359881496
C        4.5418095206   -1.8333526755   -1.2956149237
C        4.2453674730   -1.9957244153    0.0200351893
C       -1.4276627078   -0.6829028571    2.8837868022
N       -0.2746106378   -0.1323794764    2.9871399416
N       -1.7772072922   -1.8272890234    2.2099757809
O       -2.4863637969   -0.1637204938    3.5612574441
H        1.9743516548   -0.8140317464   -0.9721242492
H        3.8566674185   -2.0861494919    2.6802779721
H        0.0233123899   -0.0117068335    0.3200847007
H        1.9014569132   -1.2694268732    3.9709954283
H        5.5975743048   -1.9383982480   -1.5526321626
H        3.9259895713   -2.2073564540   -2.1147310015
H        5.1172191021   -2.0643804039    0.6770480488
H       -2.7607071049   -1.9488504636    2.0062444854
H       -1.1315554910   -2.1384112908    1.4953237216
H       -2.1319477249    0.6092189895    4.0374537563
22   
torsion grid (-45,)
C        1.9683194306   -0.9350116510    0.1118075099
C        3.0243577860   -1.6221408058    2.1651111642
C        0.8613525946   -0.4929807445    0.8308762059
C        1.9218960810   -1.1769137649    2.8925526158
C        3.0755338403   -1.5141718460    0.7626865782
C        0.8137675900   -0.6167926751    2.2360459118
C        4.5308030054   -1.8686961436   -1.2819909348
C        4.2682059938   -1.9794560745    0.0393676688
C       -1.4255099414   -0.6929641475    2.8714147101
N       -0.2772741971   -0.1339589407    2.9819075851
N       -1.7621703948   -1.8392159645    2.1941830418
O       -2.4921022767   -0.1828022197    3.5435607332
H        1.9917690431   -0.7994290255   -0.9660889001
H        3.8682242830   -2.0603870095    2.6941493339
H        0.0335492398   -0.0101367412    0.3161813855
H        1.9021636726   -1.2564648966    3.9758171493
H        5.5544607520   -2.0459663040   -1.6100288351
H        3.8004007674   -2.0883854533   -2.0599896369
H        5.1322169793   -2.1097783489    0.6946153998
H       -2.7434216337   -1.9682592630    1.9843982405
H       -1.1096531993   -2.1448032775    1.4834107596
H       -2.1462228045    0.5923106534    4.0224912103
22   
torsion grid (-30,)
C        1.9837521117   -0.9098929801    0.1142556127
C        3.0293497504   -1.6022812867    2.1698377201
C        0.8716341008   -0.4738095423    0.8294342812
C        1.9214041294   -1.1643238629    2.8936078350
C        3.0877642057   -1.4910142255    0.7680699405
C        0.8158969150   -0.6040125300    2.2333987083
C        4.5190966614   -1.9169526841   -1.2722786772
C        4.2838668572   -1.9604792095    0.0535546270
C       -1.4230547658   -0.7047088391    2.8638241971
N       -0.2829697476   -0.1294246263    2.9737439961
N       -1.7424143491   -1.8583817260    2.1904857397
O       -2.4981225761   -0.2063609260    3.5314033164
H        2.0078900102   -0.7708357353   -0.9630984268
H        3.8714965836   -2.0403870207    2.7017105105
H        0.0445302217    0.0072428077    0.3119997728
H        1.8958560708   -1.2497876777    3.9763115463
H        5.5090935290   -2.1645760497   -1.6480468638
H        3.7242584148   -1.9721525778   -2.0141163294
H        5.1411345869   -2.1526930430    0.7008392833
H       -2.7213381610   -2.0007046084    1.9782895547
H       -1.0844977157   -2.1562094069    1.4813304663
H       -2.1639602220    0.5753411063    4.0079220862
22   
torsion grid (-15,)
C        1.9908173591   -0.8953764083    0.1155722129
C        3.0370328340   -1.5809335887    2.1721412840
C        0.8753964911   -0.4651911156    0.8292672321
C        1.9251014542   -1.1502799840    2.8943842728
C        3.0963698341   -1.4720030019    0.7703466065
C        0.8175280805   -0.5959953410    2.2329897919
C        4.5063137829   -1.9638382366   -1.2662556924
C        4.2953977556   -1.9436156984    0.0612772550
C       -1.4218197816   -0.7139121784    2.8589570647
N       -0.2864386838   -0.1299080678    2.9712977645
N       -1.7310589899   -1.8697927702    2.1846820317
O       -2.5019874205   -0.2241194437    3.5247166151
H        2.0107209791   -0.7594205875   -0.9622739146
H        3.8809479992   -2.0137285791    2.7056064285
H        0.0457885268    0.0096676561    0.3101348189
H        1.8983853450   -1.2369027454    3.9769611085
H        5.4675813447   -2.2742692049   -1.6665423425
H        3.7046616720   -1.8434280702   -1.9912304939
H        5.1324803503   -2.2010855138    0.7109264023
H       -2.7084286580   -2.0196376545    1.9705399857
H       -1.0694159625   -2.1626151350    1.4769149386
H       -2.1747077008    0.5599810250    4.0020655266
22   
torsion grid (0,)
C        1.9819794218   -0.9124246907    0.1063093932
C        3.0356019634   -1.5674503645    2.1681025028
C        0.8679594697   -0.4746568362    0.8173223192
C        1.9246151618   -1.1301137720    2.8880678234
C        3.0920398124   -1.4756464557    0.7650643470
C        0.8147996927   -0.5854193887    2.2229204921
C        4.5201508956   -1.9602265145   -1.2615674851
C        4.2916892308   -1.9552034196    0.0623301677
C       -1.4199241092   -0.7121566124    2.8626819669
N       -0.2900787482   -0.1145292277    2.9570238296
N       -1.7198914662   -1.8843740328    2.2128296968
O       -2.5018066361   -0.2207196631    3.5244697174
H        1.9896368645   -0.8047295627   -0.9748996580
H        3.8818208029   -1.9914116856    2.7049702750
H        0.0323883696   -0.0156737918    0.2934988688
H        1.9006246637   -1.2046343446    3.9716147302
H        5.4532868283   -2.3436602835   -1.6639572424
H        3.7981568781   -1.5885108822   -1.9845284846
H        5.0730577338   -2.3492122952    0.7125984568
H       -2.6965544660   -2.0479450902    2.0056048641
H       -1.0582935207   -2.1840288202    1.5078636717
H       -2.1805922311    0.5763230903    3.9841586442
22   
torsion grid (15,)
C        1.9717017504   -0.9353166005    0.0976404220
C        3.0356483443   -1.5540525759    2.1662902462
C        0.8590158166   -0.4896961728    0.8059866143
C        1.9255864357   -1.1096960039    2.8831409121
C        3.0870092253   -1.4815431331    0.7618300709
C        0.8123584920   -0.5773474506    2.2133458992
C        4.5246258894   -1.9450526727   -1.2629853185
C        4.2849383554   -1.9662544251    0.0596614088
C       -1.4183238477   -0.7097304416    2.8665559232
N       -0.2928579242   -0.1015974012    2.9437188289
N       -1.7128937839   -1.8961997970    2.2404035880
O       -2.5007083422   -0.2139103540    3.5242454419
H        1.9697177694   -0.8614223090   -0.9864492296
H        3.8853245408   -1.9669872118    2.7063406362
H        0.0164766900   -0.0488941765    0.2776943753
H        1.9044740061   -1.1694821561    3.9676761088
H        5.4253565801   -2.3995452905   -1.6664218523
H        3.9422261377   -1.3439851830   -1.9573754763
H        4.9970744758   -2.4945742819    0.6943468862
H       -2.6894624841   -2.0713656770    2.0423464781
H       -1.0533900308   -2.2034805560    1.5367456623
H       -2.1832314847    0.5937292262    3.9677412714
22   
torsion grid (30,)
C        1.9712553755   -0.9216404445    0.1000612608
C        3.0408026956   -1.5323733491    2.1687255198
C        0.8562565553   -0.4818213238    0.8082445292
C        1.9277731369   -1.0953098287    2.8852741481
C        3.0897117789   -1.4622426203    0.7639853867
C        0.8109046546   -0.5697374954    2.2157252713
C        4.4950820106   -1.9769594534   -1.2740785340
C        4.2849674955   -1.9452230030    0.0562572221
C       -1.4192659271   -0.7184038326    2.8678290164
N       -0.2977079966   -0.1032680972    2.9466881116
N       -1.7050243041   -1.9054671935    2.2388347422
O       -2.5052693844   -0.2313354637    3.5260907751
H        1.9690543794   -0.8552432703   -0.9845377916
H        3.8934908155   -1.9394071324    2.7085120590
H        0.0099006158   -0.0481888361    0.2800803775
H        1.9066966752   -1.1554814368    3.9697908615
H        5.3689533763   -2.4955314431   -1.6621736261
H        4.0517353338   -1.2585511162   -1.9608829780
H        4.9581872735   -2.5337170426    0.6815242756
H       -2.6802381529   -2.0872669760    2.0401027601
H       -1.0430771567   -2.2066653042    1.5348404310
H       -2.1935226393    0.5774300190    3.9715850788
22   
torsion grid (45,)
C        1.9690251522   -0.8968588204    0.1018254479
C        3.0451493992   -1.5093344653    2.1701503045
C        0.8519325794   -0.4664642535    0.8120479872
C        1.9291457267   -1.0827173032    2.8878892703
C        3.0893725260   -1.4349765635    0.7652527194
C        0.8092583405   -0.5614321526    2.2193206056
C        4.4647687095   -2.0079558129   -1.2867463529
C        4.2803796993   -1.9141304327    0.0492988600
C       -1.4196832381   -0.7305678507    2.8708503606
N       -0.3026742933   -0.1075174380    2.9525863910
N       -1.6981409398   -1.9162865615    2.2361438502
O       -2.5085876321   -0.2545080734    3.5321814831
H        1.9686456987   -0.8317895173   -0.9829747806
H        3.9010758912   -1.9130528017    2.7072981495
H        0.0016741371   -0.0372784325    0.2864842067
H        1.9075625452   -1.1477132340    3.9721310229
H        5.3068235490   -2.6018876217   -1.6398024781
H        4.1883318865   -1.2181141964   -1.9848039623
H        4.9164020282   -2.5548975374    0.6642999094
H       -2.6723413801   -2.1036611358    2.0375527849
H       -1.0350687628   -2.2094084257    1.5297941639
H       -2.2023850111    0.5541479861    3.9816989539
22   
torsion grid (60,)
C        1.9646162083   -0.8655117334    0.1046069263
C        3.0480473707   -1.4849345122    2.1668851313
C        0.8458113594   -0.4484444822    0.8195834652
C        1.9302557521   -1.0717467858    2.8893001729
C        3.0892233784   -1.4032012003    0.7620853432
C        0.8050070460   -0.5539574210    2.2264154786
C        4.4397983047   -2.0335141811   -1.3034552128
C        4.2760470454   -1.8761880198    0.0358460895
C       -1.4229636615   -0.7444774523    2.8771625735
N       -0.3095374866   -0.1157011706    2.9646482784
N       -1.6948090098   -1.9255615318    2.2312347584
O       -2.5142231546   -0.2813014356    3.5435807557
H        1.9648503687   -0.7961352421   -0.9800488271
H        3.9075387301   -1.8864806067    2.6998723409
H       -0.0086469826   -0.0223375736    0.2983613339
H        1.9104948935   -1.1449986028    3.9730386445
H        5.2459745595   -2.7078231275   -1.5987246818
H        4.3514124970   -1.2263412521   -2.0319656514
H        4.8731678244   -2.5569732253    0.6494684984
H       -2.6680447638   -2.1172092297    2.0319940151
H       -1.0306458549   -2.2083047079    1.5216971957
H       -2.2127078133    0.5247388501    4.0008922687
22   
torsion grid (75,)
C        1.9552436178   -0.8285697922    0.1061814957
C        3.0496871921   -1.4627535593    2.1591022261
C        0.8356167957   -0.4273455477    0.8281714085
C        1.9313803924   -1.0643319803    2.8883665436
C        3.0849423389   -1.3681927831    0.7546100806
C        0.7999178499   -0.5480683956    2.2342145047
C        4.4202067158   -2.0558756839   -1.3222078949
C        4.2675372458   -1.8323758176    0.0169259216
C       -1.4263101150   -0.7592984778    2.8857750169
N       -0.3152762135   -0.1272484395    2.9806260738
N       -1.6922246390   -1.9318557690    2.2224306846
O       -2.5186192083   -0.3116905505    3.5609077534
H        1.9543879913   -0.7495593938   -0.9779145885
H        3.9131966219   -1.8646613225    2.6852541572
H       -0.0235275624   -0.0020743255    0.3140098304
H        1.9149674214   -1.1488635033    3.9713197576
H        5.1928709140   -2.8025641974   -1.5330336727
H        4.5257602253   -1.2881206330   -2.0909605015
H        4.8336188218   -2.5342830659    0.6382690014
H       -2.6646430498   -2.1267715706    2.0224301079
H       -1.0275415882   -2.2007449406    1.5080250932
H       -2.2205251566    0.4888451055    4.0299758973
22   
torsion grid (90,)
C        1.9448123632   -0.7862578011    0.1066968961
C        3.0516245958   -1.4412486380    2.1502217301
C        0.8246447227   -0.4037789044    0.8370385456
C        1.9335856686   -1.0589807473    2.8873725345
C        3.0790570412   -1.3292234285    0.7461799058
C        0.7963447263   -0.5432583795    2.2418775983
C        4.4059241776   -2.0669485525   -1.3404026300
C        4.2573894908   -1.7829514443   -0.0028023898
C       -1.4280521302   -0.7759114077    2.8936645095
N       -0.3188687459   -0.1418078650    2.9975247414
N       -1.6895554498   -1.9374878716    2.2099613188
O       -2.5206322447   -0.3449503196    3.5788928308
H        1.9426329230   -0.6949190101   -0.9765355906
H        3.9192023493   -1.8455730425    2.6678076111
H       -0.0398067626    0.0213284603    0.3316708901
H        1.9205372182   -1.1572493973    3.9692100454
H        5.1271834189   -2.8879382684   -1.4557075742
H        4.6981475994   -1.3937434739   -2.1491964184
H        4.7979541503   -2.4982248386    0.6281371290
H       -2.6614176108   -2.1342444091    2.0091050193
H       -1.0249771708   -2.1913073589    1.4899815503
H       -2.2250637192    0.4482720545    4.0617806437
