11   
torsion grid (-165,)
C        0.9520129110   -0.0668866729   -0.1260711758
N        1.9168462867    1.0265476381   -0.0912319281
C        1.6281865099    2.2455685122    0.4500537755
S        0.1033316500    2.6891968645    0.9885200463
N        2.7062360760    3.0913542182    0.5611850690
H        0.0463000346    0.2568650796   -0.6416561058
H        1.4015269004   -0.8990588542   -0.6734654374
H        0.6730096355   -0.3945066644    0.8817073287
H        2.8939131734    0.7651517875   -0.1483755216
H        2.4914014607    4.0539097996    0.7817916042
H        3.5580400554    2.9159514754    0.0407852795
11   
torsion grid (-150,)
C        0.9519257655   -0.0631189952   -0.1349351514
N        1.9309105485    1.0155220087   -0.0617546152
C        1.6421924249    2.2353527024    0.4756929031
S        0.1182639781    2.6938337002    0.9938704148
N        2.7399786230    3.0705340321    0.5922904457
H        0.0704624919    0.2755733657   -0.6822591323
H        1.4079752902   -0.9011048011   -0.6677130853
H        0.6311438576   -0.3880528059    0.8611808853
H        2.9061417936    0.7404619989   -0.0661880507
H        2.4967023952    4.0277581005    0.8149931250
H        3.4751075254    2.9773338772   -0.1019348044
11   
torsion grid (-135,)
C        0.9514072531   -0.0636254943   -0.1389346018
N        1.9423691816    1.0002507442   -0.0299313940
C        1.6576292238    2.2247366406    0.4932995594
S        0.1331937784    2.7086189853    0.9781961679
N        2.7773496959    3.0499325808    0.5941641488
H        0.0958025389    0.2858932746   -0.7200319700
H        1.4143079622   -0.9105555818   -0.6510530926
H        0.5885192836   -0.3795071947    0.8454883124
H        2.9154328770    0.7186738304   -0.0028310892
H        2.5200642022    3.9872541129    0.8836894732
H        3.3747286970    3.0624212857   -0.2288125794
11   
torsion grid (-120,)
C        0.9496869678   -0.0669848921   -0.1383198536
N        1.9501339003    0.9824036959    0.0047584838
C        1.6725190153    2.2137395522    0.5051358524
S        0.1478636703    2.7250224334    0.9542482504
N        2.8153846576    3.0294745094    0.5796474217
H        0.1269259197    0.2849875251   -0.7647109020
H        1.4228900591   -0.9296974142   -0.6129603737
H        0.5360938260   -0.3598866745    0.8328635800
H        2.9244257897    0.7050025476    0.0211619052
H        2.5640447847    3.9341096924    0.9673072305
H        3.2608361033    3.1659222084   -0.3258886604
11   
torsion grid (-105,)
C        0.9484386379   -0.0740167835   -0.1320311190
N        1.9547504198    0.9634602102    0.0413816245
C        1.6830088182    2.2064876269    0.5021232219
S        0.1572304118    2.7500078601    0.9030160988
N        2.8516790165    3.0099091838    0.5539997066
H        0.1499126550    0.2843933346   -0.7862766901
H        1.4262473824   -0.9459883337   -0.5842634853
H        0.5001617718   -0.3546435287    0.8271705062
H        2.9320216170    0.6966734150    0.0346938050
H        2.6233250494    3.8691612788    1.0487887527
H        3.1440289140    3.2786489200   -0.3853594866
11   
torsion grid (-90,)
C        0.9461965378   -0.0828747603   -0.1216300595
N        1.9558033857    0.9484899989    0.0617574657
C        1.6899061122    2.2018623556    0.4837821160
S        0.1647490893    2.7701009703    0.8469729081
N        2.8829247085    2.9936140989    0.5161806849
H        0.1765928641    0.2620817465   -0.8174687621
H        1.4312811873   -0.9746064793   -0.5243913270
H        0.4583542325   -0.3251680139    0.8283150230
H        2.9362363090    0.6975411543    0.0146658606
H        2.7042237500    3.7800902508    1.1390675789
H        3.0245365173    3.4129618616   -0.4040085539
11   
torsion grid (-75,)
C        0.9446467744   -0.0945889360   -0.1036553024
N        1.9531039774    0.9412582097    0.0559842407
C        1.6888769184    2.2061613653    0.4327548219
S        0.1631618255    2.7983522275    0.7464925224
N        2.9048136753    2.9841539921    0.4709411887
H        0.1774723546    0.2331528372   -0.8104776306
H        1.4303400862   -0.9972390543   -0.4801447081
H        0.4534083565   -0.3095475611    0.8511930284
H        2.9357933239    0.6997237550    0.0009660670
H        2.7952596494    3.6582443384    1.2290527517
H        2.9239277521    3.5644220097   -0.3698640451
11   
torsion grid (-60,)
C        1.1129336088   -0.0775872982    0.0687453674
N        1.7614114985    1.1742467081   -0.2950260216
C        1.5409088526    2.4032050137    0.2494806965
S        2.2911267259    3.7701414836   -0.3584300522
N        0.5259897004    2.4811051548    1.2075420071
H        0.0410810149   -0.0794082594   -0.1698806473
H        1.5832492403   -0.8850725418   -0.4948911733
H        1.2439966493   -0.3003019094    1.1341762398
H        2.3578219367    1.1910340601   -1.1122029318
H        0.1175659882    1.5812423299    1.4516137396
H        0.8395046255    2.9294875597    2.0629897819
11   
torsion grid (-45,)
C        1.1025319487   -0.0849612876    0.0449651167
N        1.8011869403    1.1543030820   -0.2653415304
C        1.5372312046    2.3833062711    0.2585545805
S        2.2554251985    3.7700659121   -0.3500596764
N        0.5284832411    2.4347742433    1.2122757213
H        0.0315212163   -0.0270410940   -0.1882282583
H        1.5382836058   -0.8862446232   -0.5538504763
H        1.2254595912   -0.3616888420    1.0993868616
H        2.4049280796    1.1802001795   -1.0765229765
H        0.2522592241    1.5374887959    1.6034942188
H        0.7382795910    3.0878896641    1.9594434250
11   
torsion grid (-30,)
C        1.0953850646   -0.0905355988    0.0278707088
N        1.8138831451    1.1424568467   -0.2601581557
C        1.5337428385    2.3676105526    0.2622157704
S        2.2510820807    3.7678430136   -0.3209808211
N        0.5435290547    2.3969226990    1.2263279008
H        0.0226447897    0.0020442940   -0.1827388577
H        1.5023386500   -0.8840712506   -0.6007203780
H        1.2287735621   -0.4008561586    1.0721389940
H        2.4366076960    1.1708264816   -1.0563116273
H        0.3543350446    1.5299030269    1.7207977176
H        0.6332679151    3.1859483948    1.8556757543
11   
torsion grid (-15,)
C        1.0908550443   -0.0941464443    0.0157873827
N        1.8287450991    1.1321848707   -0.2519503950
C        1.5353236044    2.3566815607    0.2656176392
S        2.2531741576    3.7640268291   -0.3037435760
N        0.5781588525    2.3700216295    1.2534450834
H        0.0169227383    0.0302330241   -0.1692981607
H        1.4677879417   -0.8778939865   -0.6431628880
H        1.2365685002   -0.4375126544    1.0482100948
H        2.4562952603    1.1634920757   -1.0439148803
H        0.4287951521    1.5371654452    1.8122592715
H        0.5229634907    3.2438399512    1.7608674345
11   
torsion grid (0,)
C        1.1126634151   -0.0991713406    0.0349655057
N        1.7442787538    1.1558693229   -0.3362802273
C        1.5558729156    2.3577598771    0.2735776168
S        2.3538914506    3.7499236597   -0.2345629871
N        0.6819984995    2.3682385253    1.3205910548
H        0.0201041818   -0.0490574381   -0.0616128415
H        1.4693229237   -0.8818060451   -0.6364039036
H        1.3683470929   -0.3958752273    1.0606590317
H        2.3991910785    1.1794000985   -1.1052500229
H        0.1808566020    1.5516505731    1.6430144270
H        0.5290629276    3.2511602957    1.7854193525
11   
torsion grid (15,)
C        1.1333635229   -0.1052811270    0.0513391250
N        1.6547310534    1.1778797897   -0.3978141728
C        1.5656516092    2.3486747140    0.2911652726
S        2.4293299093    3.7176167894   -0.1562265184
N        0.7580670598    2.3228068128    1.4043755315
H        0.0358089438   -0.1227741673    0.0409667722
H        1.4768362499   -0.8801485766   -0.6357990956
H        1.4833870076   -0.3542743595    1.0605646370
H        2.3326828960    1.1960251411   -1.1475228627
H        0.0017271872    1.6492526083    1.4544003934
H        0.5440044021    3.2383146761    1.7786679238
11   
torsion grid (30,)
C        1.1241948263   -0.0978053853    0.0509832569
N        1.6561449552    1.1836673000   -0.3914036151
C        1.5700014982    2.3575324471    0.2932671453
S        2.4582680833    3.7103466014   -0.1488161762
N        0.7911230266    2.3306623716    1.4347014780
H        0.0270456713   -0.0919186387    0.0742583653
H        1.4285075982   -0.8645822165   -0.6630779593
H        1.5005714077   -0.3778837016    1.0427994324
H        2.3490304341    1.1938348031   -1.1279419690
H        0.0860751208    1.6019417922    1.4969904543
H        0.4246272192    3.2422969278    1.6823565934
11   
torsion grid (45,)
C        1.1069528463   -0.0859233015    0.0487691012
N        1.6775485241    1.1868257109   -0.3692324066
C        1.5800684979    2.3719922171    0.2944086965
S        2.4746462937    3.7125439984   -0.1661042583
N        0.8228363151    2.3571084775    1.4589714008
H        0.0112052287   -0.0432332901    0.0809572969
H        1.3807969408   -0.8449125634   -0.6857043286
H        1.4823921073   -0.4069061374    1.0289710663
H        2.3749034473    1.1881515534   -1.1019538677
H        0.2218202670    1.5451682144    1.5776134453
H        0.2824193730    3.2072774217    1.5774208603
11   
torsion grid (60,)
C        1.0853167690   -0.0704677975    0.0455007453
N        1.7170650293    1.1858718022   -0.3319972035
C        1.5940368147    2.3893545376    0.2940738355
S        2.4775018097    3.7212684236   -0.2021510768
N        0.8410519914    2.3985889189    1.4717559920
H       -0.0058220039    0.0277694379    0.0863041186
H        1.3188155261   -0.8155928151   -0.7168563013
H        1.4486677671   -0.4493567811    1.0099872094
H        2.4186495149    1.1750669201   -1.0609845995
H        0.3964705331    1.5082493030    1.6855749546
H        0.1238360896    3.1173403516    1.4629093316
11   
torsion grid (75,)
C        0.9375042215   -0.0864480700   -0.1274860082
N        1.8963861535    1.0070996148   -0.1396946890
C        1.6930848485    2.2014096281    0.4468579350
S        0.3257540444    2.6097138767    1.3074521501
N        2.8471108344    3.0513704373    0.2707241778
H        0.0182703413    0.1965013547   -0.6511331660
H        1.3901609808   -0.9509163410   -0.6176043475
H        0.6729436629   -0.3431902981    0.9019120810
H        2.7287482406    0.9402319068   -0.7139300604
H        2.4961456107    4.0064287635    0.1944352795
H        3.3646957552    3.0518923107    1.1517095822
11   
torsion grid (90,)
C        0.9494381539   -0.0868114247   -0.1095922997
N        1.8970941405    1.0166486130   -0.1408041386
C        1.6685932856    2.2267965028    0.4097211482
S        0.2739253502    2.6435947101    1.2234070276
N        2.8079523709    3.0809260693    0.2562912948
H        0.0310399615    0.1717755499   -0.6469646334
H        1.4160537599   -0.9573050886   -0.5756606783
H        0.6802855728   -0.3238188936    0.9232972471
H        2.7221497216    0.9462403257   -0.7245570736
H        2.4812250359    4.0397711339    0.3673439238
H        3.4430473409    2.9262756857    1.0407611167
11   
torsion grid (105,)
C        0.9578390492   -0.0851152296   -0.0987270079
N        1.9084851127    1.0171492109   -0.1182076843
C        1.6545574861    2.2397317513    0.4033842541
S        0.2371166560    2.6575682991    1.1782527209
N        2.7654385823    3.1103228649    0.2552171345
H        0.0628063217    0.1539858656   -0.6831249860
H        1.4453871133   -0.9686443085   -0.5168468246
H        0.6457820598   -0.2924238852    0.9278101836
H        2.7086393271    0.9561595709   -0.7365222773
H        2.4698178742    4.0480258077    0.5171239277
H        3.5149351113    2.8473332364    0.8948834939
11   
torsion grid (120,)
C        0.9631006068   -0.0827512788   -0.0911549637
N        1.9252963188    1.0111642855   -0.0807816630
C        1.6452455323    2.2456090954    0.4104918311
S        0.2001897733    2.6646592830    1.1343028090
N        2.7250166945    3.1347048647    0.2665680405
H        0.0900461486    0.1588122249   -0.7071671372
H        1.4590017106   -0.9720937962   -0.4869199507
H        0.6157786387   -0.2836287469    0.9248183236
H        2.7100650325    0.9540270566   -0.7190120842
H        2.4688303119    4.0451922092    0.6369695873
H        3.5682339258    2.8083979860    0.7351281419
11   
torsion grid (135,)
C        0.9653441817   -0.0800380364   -0.0894248173
N        1.9381132039    1.0049982718   -0.0438444238
C        1.6396858133    2.2457637942    0.4308150922
S        0.1723197568    2.6633040975    1.1131781796
N        2.6887559518    3.1533545412    0.2864830315
H        0.1235663523    0.1604696834   -0.7482353958
H        1.4720517347   -0.9781346653   -0.4506432123
H        0.5707569172   -0.2659965012    0.9114478238
H        2.7182451725    0.9486369584   -0.6880693020
H        2.4798847097    4.0341621058    0.7437911661
H        3.6020808999    2.7975729341    0.5577447925
11   
torsion grid (150,)
C        0.9639592633   -0.0774148962   -0.0920791302
N        1.9460901762    0.9975825491   -0.0079709382
C        1.6367156291    2.2420049238    0.4563617127
S        0.1496611460    2.6572469178    1.1025440306
N        2.6609075839    3.1629516518    0.3173518154
H        0.1521296810    0.1688255191   -0.7855874135
H        1.4768252131   -0.9812862736   -0.4297641709
H        0.5276121554   -0.2566544994    0.8922125783
H        2.7434265303    0.9298524923   -0.6295750592
H        2.4998811503    4.0246147222    0.8240245641
H        3.6135961650    2.8163700766    0.3757249455
11   
torsion grid (165,)
C        0.9591155312   -0.0754497512   -0.1001752630
N        1.9498745303    0.9878476740    0.0240273504
C        1.6386559485    2.2336219108    0.4857525426
S        0.1384623135    2.6486486824    1.1095299296
N        2.6503087557    3.1568804009    0.3664123711
H        0.1763314295    0.1815908080   -0.8225961351
H        1.4744646063   -0.9837675210   -0.4220055919
H        0.4849978636   -0.2528923886    0.8666681602
H        2.7771089760    0.9011928572   -0.5542053484
H        2.5154552980    4.0262819514    0.8636930986
H        3.6060294411    2.8601385597    0.2061418206
11   
torsion grid (180,)
C        0.9495879934   -0.0730187745   -0.1122898243
N        1.9389474204    0.9898321003    0.0144577486
C        1.6432951978    2.2278592327    0.4984992553
S        0.1346901013    2.6491770636    1.1059285964
N        2.6759197892    3.1255111302    0.4660040354
H        0.1534886479    0.2022039468   -0.8120609596
H        1.4597968332   -0.9699930252   -0.4717594191
H        0.4933493695   -0.2804580544    0.8581399372
H        2.8274994623    0.8529935750   -0.4501928341
H        2.4979342626    4.0541548223    0.8190221465
H        3.5962956161    2.9058311669    0.1074942523
