
  -OEChem-12102412493D

 22 23  0     0  0  0  0  0  0999 V2000
    1.8560   -1.0165   -0.1265 C   0  0  0  0  0  0  0  0  0  0  0  0
    0.7494   -0.5233    0.5726 C   0  0  0  0  0  0  0  0  0  0  0  0
    2.9303   -1.5652    0.5756 C   0  0  0  0  0  0  0  0  0  0  0  0
    0.7402   -0.5653    1.9654 C   0  0  0  0  0  0  0  0  0  0  0  0
    2.1643   -0.7842    6.2337 C   0  0  0  0  0  0  0  0  0  0  0  0
    0.8661   -1.3087    6.0100 C   0  0  0  0  0  0  0  0  0  0  0  0
    2.7111   -0.6669    4.9689 C   0  0  0  0  0  0  0  0  0  0  0  0
    2.9414   -1.6341    1.9778 C   0  0  0  0  0  0  0  0  0  0  0  0
    1.8307   -1.1037    2.6595 C   0  0  0  0  0  0  0  0  0  0  0  0
    4.1028   -2.2928    2.6872 C   0  0  0  0  0  0  0  0  0  0  0  0
    0.6244   -1.4998    4.7131 N   0  0  0  0  0  0  0  0  0  0  0  0
    1.7694   -1.1127    4.0839 N   0  0  0  0  0  0  0  0  0  0  0  0
    1.8771   -0.9859   -1.2126 H   0  0  0  0  0  0  0  0  0  0  0  0
   -0.0986   -0.1044    0.0378 H   0  0  0  0  0  0  0  0  0  0  0  0
    3.7767   -1.9725    0.0272 H   0  0  0  0  0  0  0  0  0  0  0  0
   -0.1042   -0.1915    2.5348 H   0  0  0  0  0  0  0  0  0  0  0  0
    2.6307   -0.5238    7.1740 H   0  0  0  0  0  0  0  0  0  0  0  0
    0.1023   -1.5593    6.7360 H   0  0  0  0  0  0  0  0  0  0  0  0
    3.6652   -0.2867    4.6346 H   0  0  0  0  0  0  0  0  0  0  0  0
    4.8618   -1.5637    2.9942 H   0  0  0  0  0  0  0  0  0  0  0  0
    3.7791   -2.8252    3.5852 H   0  0  0  0  0  0  0  0  0  0  0  0
    4.5932   -3.0084    2.0220 H   0  0  0  0  0  0  0  0  0  0  0  0
  1  2  1  0  0  0  0
  1  3  2  0  0  0  0
  1 13  1  0  0  0  0
  2  4  2  0  0  0  0
  2 14  1  0  0  0  0
  3  8  1  0  0  0  0
  3 15  1  0  0  0  0
  4  9  1  0  0  0  0
  4 16  1  0  0  0  0
  5  6  1  0  0  0  0
  5  7  2  0  0  0  0
  5 17  1  0  0  0  0
  6 11  2  0  0  0  0
  6 18  1  0  0  0  0
  7 12  1  0  0  0  0
  7 19  1  0  0  0  0
  8  9  2  0  0  0  0
  8 10  1  0  0  0  0
  9 12  1  0  0  0  0
 10 20  1  0  0  0  0
 10 21  1  0  0  0  0
 10 22  1  0  0  0  0
 11 12  1  0  0  0  0
M  END
$$$$
