
  -OEChem-12122420533D

 33 34  0     0  0  0  0  0  0999 V2000
   -1.1237   -1.6041    0.9240 C   0  0  0  0  0  0  0  0  0  0  0  0
   -0.1200   -0.8640    1.5515 C   0  0  0  0  0  0  0  0  0  0  0  0
   -2.3988   -1.6736    1.4949 C   0  0  0  0  0  0  0  0  0  0  0  0
   -0.4055   -0.2079    2.7522 C   0  0  0  0  0  0  0  0  0  0  0  0
   -2.7004   -1.0181    2.6956 C   0  0  0  0  0  0  0  0  0  0  0  0
   -1.6783   -0.2805    3.3330 C   0  0  0  0  0  0  0  0  0  0  0  0
   -0.9023   -1.3453    5.9852 C   0  0  0  0  0  0  0  0  0  0  0  0
   -2.4910    0.1356    7.0004 C   0  0  0  0  0  0  0  0  0  0  0  0
   -1.2057   -2.4535    6.9809 C   0  0  0  0  0  0  0  0  0  0  0  0
   -2.8716   -0.8964    8.0544 C   0  0  0  0  0  0  0  0  0  0  0  0
   -4.0992   -1.0850    3.2653 C   0  0  0  0  0  0  0  0  0  0  0  0
   -1.9349    0.4243    4.6438 C   0  0  0  0  0  0  0  0  0  0  0  0
   -2.0878   -0.5278    5.7707 N   0  0  0  0  0  0  0  0  0  0  0  0
   -1.6960   -1.8318    8.2797 N   0  3  0  0  0  0  0  0  0  0  0  0
   -0.9207   -2.1190   -0.0110 H   0  0  0  0  0  0  0  0  0  0  0  0
    0.8703   -0.7923    1.1110 H   0  0  0  0  0  0  0  0  0  0  0  0
   -3.1780   -2.2408    0.9915 H   0  0  0  0  0  0  0  0  0  0  0  0
    0.3712    0.3773    3.2411 H   0  0  0  0  0  0  0  0  0  0  0  0
   -0.0335   -0.7520    6.3362 H   0  0  0  0  0  0  0  0  0  0  0  0
   -0.6093   -1.8132    5.0427 H   0  0  0  0  0  0  0  0  0  0  0  0
   -3.3742    0.7522    6.8112 H   0  0  0  0  0  0  0  0  0  0  0  0
   -1.7078    0.8094    7.4029 H   0  0  0  0  0  0  0  0  0  0  0  0
   -2.0118   -3.0953    6.6219 H   0  0  0  0  0  0  0  0  0  0  0  0
   -0.3259   -3.0549    7.2184 H   0  0  0  0  0  0  0  0  0  0  0  0
   -3.1179   -0.4410    9.0158 H   0  0  0  0  0  0  0  0  0  0  0  0
   -3.6999   -1.5192    7.7132 H   0  0  0  0  0  0  0  0  0  0  0  0
   -4.0972   -1.4595    4.2935 H   0  0  0  0  0  0  0  0  0  0  0  0
   -4.5682   -0.0936    3.2819 H   0  0  0  0  0  0  0  0  0  0  0  0
   -4.7368   -1.7360    2.6630 H   0  0  0  0  0  0  0  0  0  0  0  0
   -1.1212    1.1389    4.8494 H   0  0  0  0  0  0  0  0  0  0  0  0
   -2.8645    1.0000    4.5961 H   0  0  0  0  0  0  0  0  0  0  0  0
   -0.9252   -1.3001    8.7025 H   0  0  0  0  0  0  0  0  0  0  0  0
   -1.9494   -2.5642    8.9522 H   0  0  0  0  0  0  0  0  0  0  0  0
  1  2  1  0  0  0  0
  1  3  2  0  0  0  0
  1 15  1  0  0  0  0
  2  4  2  0  0  0  0
  2 16  1  0  0  0  0
  3  5  1  0  0  0  0
  3 17  1  0  0  0  0
  4  6  1  0  0  0  0
  4 18  1  0  0  0  0
  5  6  2  0  0  0  0
  5 11  1  0  0  0  0
  6 12  1  0  0  0  0
  7  9  1  0  0  0  0
  7 13  1  0  0  0  0
  7 19  1  0  0  0  0
  7 20  1  0  0  0  0
  8 10  1  0  0  0  0
  8 13  1  0  0  0  0
  8 21  1  0  0  0  0
  8 22  1  0  0  0  0
  9 14  1  0  0  0  0
  9 23  1  0  0  0  0
  9 24  1  0  0  0  0
 10 14  1  0  0  0  0
 10 25  1  0  0  0  0
 10 26  1  0  0  0  0
 11 27  1  0  0  0  0
 11 28  1  0  0  0  0
 11 29  1  0  0  0  0
 12 13  1  0  0  0  0
 12 30  1  0  0  0  0
 12 31  1  0  0  0  0
 14 32  1  0  0  0  0
 14 33  1  0  0  0  0
M  CHG  1  14   1
M  END
$$$$
