32
0 1 C13H18O
C                    -0.221892338975    -3.877518441052     6.896853165346
C                     1.038141989768    -3.319771259700     7.110447577024
C                    -0.458057381088    -5.202343634646     7.286817816875
C                     2.055266500091    -4.074845204426     7.707232113580
C                     0.536880088777    -5.979779438813     7.883369102700
C                     1.806016456048    -5.397445673525     8.094470819836
C                     5.418703457634    -8.365609395473     7.908875851721
C                     4.766204572537    -7.419118268582     6.890700548920
C                     4.754367259342    -8.245189077981     9.288104949995
C                     4.768274787870    -5.966726616148     7.388965825202
C                     4.751945871429    -6.791334277019     9.782025369164
C                     4.109998689952    -5.840165054249     8.769743523541
C                     0.292033910399    -7.407072009765     8.305045672265
O                     2.717323209339    -6.213076144648     8.712613038575
H                    -1.011972885508    -3.294564744662     6.431671206882
H                     1.241901658862    -2.293982604992     6.813687796627
H                    -1.438067841361    -5.645100671620     7.121571940346
H                     3.027589835863    -3.622361837402     7.864680823206
H                     6.486903697238    -8.120977465072     7.997321906283
H                     5.362997242547    -9.400668457021     7.551909320480
H                     5.285574626630    -7.477970860236     5.927403997384
H                     3.730986503820    -7.733086944787     6.711294736917
H                     3.720300410355    -8.603097624033     9.228056973481
H                     5.270095886295    -8.881247067447    10.016816878908
H                     5.800874530083    -5.602895360001     7.476312598778
H                     4.263517681986    -5.316639741945     6.668026292406
H                     4.223011182674    -6.705700000274    10.737087711630
H                     5.783145289031    -6.454698660127     9.950357042053
H                     4.190544488600    -4.812103302957     9.143392128219
H                     0.991805132369    -8.090237920744     7.811248313257
H                     0.441528922503    -7.532955658615     9.382896114486
H                    -0.726999162202    -7.716956797889     8.058163373442
