
  -OEChem-12122420533D

 30 31  0     0  0  0  0  0  0999 V2000
    8.2259   -6.7550   -3.0116 C   0  0  0  0  0  0  0  0  0  0  0  0
    8.0164  -11.6025    4.8267 C   0  0  0  0  0  0  0  0  0  0  0  0
    7.5810  -12.2456    3.6666 C   0  0  0  0  0  0  0  0  0  0  0  0
    7.1721   -6.5736   -2.1050 C   0  0  0  0  0  0  0  0  0  0  0  0
    9.2512   -7.6438   -2.6814 C   0  0  0  0  0  0  0  0  0  0  0  0
    8.7796  -10.4339    4.7288 C   0  0  0  0  0  0  0  0  0  0  0  0
    7.9151  -11.7075    2.4196 C   0  0  0  0  0  0  0  0  0  0  0  0
    7.1492   -7.2616   -0.8946 C   0  0  0  0  0  0  0  0  0  0  0  0
    9.2364   -8.3465   -1.4717 C   0  0  0  0  0  0  0  0  0  0  0  0
    9.1219   -9.8853    3.4859 C   0  0  0  0  0  0  0  0  0  0  0  0
    8.6785  -10.5387    2.3150 C   0  0  0  0  0  0  0  0  0  0  0  0
    8.1836   -8.1599   -0.5552 C   0  0  0  0  0  0  0  0  0  0  0  0
    9.9619   -8.6308    3.4100 C   0  0  0  0  0  0  0  0  0  0  0  0
    8.9868   -9.9731    0.9467 C   0  0  0  0  0  0  0  0  0  0  0  0
    8.1519   -8.7999    0.6872 N   0  0  0  0  0  0  0  0  0  0  0  0
    8.2426   -6.2160   -3.9546 H   0  0  0  0  0  0  0  0  0  0  0  0
    7.7657  -12.0062    5.8045 H   0  0  0  0  0  0  0  0  0  0  0  0
    6.9888  -13.1548    3.7289 H   0  0  0  0  0  0  0  0  0  0  0  0
    6.3617   -5.8886   -2.3426 H   0  0  0  0  0  0  0  0  0  0  0  0
   10.0752   -7.8025   -3.3730 H   0  0  0  0  0  0  0  0  0  0  0  0
    9.1171   -9.9381    5.6364 H   0  0  0  0  0  0  0  0  0  0  0  0
    7.5796  -12.2033    1.5109 H   0  0  0  0  0  0  0  0  0  0  0  0
    6.3303   -7.1047   -0.1947 H   0  0  0  0  0  0  0  0  0  0  0  0
   10.0436   -9.0359   -1.2484 H   0  0  0  0  0  0  0  0  0  0  0  0
   10.9545   -8.8454    2.9951 H   0  0  0  0  0  0  0  0  0  0  0  0
    9.4984   -7.8799    2.7638 H   0  0  0  0  0  0  0  0  0  0  0  0
   10.1072   -8.1959    4.4023 H   0  0  0  0  0  0  0  0  0  0  0  0
   10.0377   -9.6679    0.8956 H   0  0  0  0  0  0  0  0  0  0  0  0
    8.8425  -10.7498    0.1797 H   0  0  0  0  0  0  0  0  0  0  0  0
    7.2188   -8.8927    1.0723 H   0  0  0  0  0  0  0  0  0  0  0  0
  1  4  1  0  0  0  0
  1  5  2  0  0  0  0
  1 16  1  0  0  0  0
  2  3  1  0  0  0  0
  2  6  2  0  0  0  0
  2 17  1  0  0  0  0
  3  7  2  0  0  0  0
  3 18  1  0  0  0  0
  4  8  2  0  0  0  0
  4 19  1  0  0  0  0
  5  9  1  0  0  0  0
  5 20  1  0  0  0  0
  6 10  1  0  0  0  0
  6 21  1  0  0  0  0
  7 11  1  0  0  0  0
  7 22  1  0  0  0  0
  8 12  1  0  0  0  0
  8 23  1  0  0  0  0
  9 12  2  0  0  0  0
  9 24  1  0  0  0  0
 10 11  2  0  0  0  0
 10 13  1  0  0  0  0
 11 14  1  0  0  0  0
 12 15  1  0  0  0  0
 13 25  1  0  0  0  0
 13 26  1  0  0  0  0
 13 27  1  0  0  0  0
 14 15  1  0  0  0  0
 14 28  1  0  0  0  0
 14 29  1  0  0  0  0
 15 30  1  0  0  0  0
M  END
$$$$
