
  -OEChem-12102412493D

 30 31  0     0  0  0  0  0  0999 V2000
   -1.7148   -2.1270    8.4569 C   0  0  0  0  0  0  0  0  0  0  0  0
    2.0368   -1.7037   -0.0170 C   0  0  0  0  0  0  0  0  0  0  0  0
    1.1236   -2.5975    0.5451 C   0  0  0  0  0  0  0  0  0  0  0  0
   -1.1882   -3.3027    7.9041 C   0  0  0  0  0  0  0  0  0  0  0  0
   -1.6548   -0.9485    7.7105 C   0  0  0  0  0  0  0  0  0  0  0  0
    2.4070   -0.5590    0.6947 C   0  0  0  0  0  0  0  0  0  0  0  0
    0.5984   -2.3408    1.8147 C   0  0  0  0  0  0  0  0  0  0  0  0
   -0.6221   -3.2981    6.6320 C   0  0  0  0  0  0  0  0  0  0  0  0
   -1.0803   -0.9293    6.4348 C   0  0  0  0  0  0  0  0  0  0  0  0
    1.8892   -0.2884    1.9688 C   0  0  0  0  0  0  0  0  0  0  0  0
    0.9769   -1.2022    2.5394 C   0  0  0  0  0  0  0  0  0  0  0  0
   -0.5600   -2.1105    5.8723 C   0  0  0  0  0  0  0  0  0  0  0  0
    2.3086    0.9711    2.6950 C   0  0  0  0  0  0  0  0  0  0  0  0
    0.3777   -0.9304    3.9064 C   0  0  0  0  0  0  0  0  0  0  0  0
   -0.0222   -2.1590    4.5806 N   0  0  0  0  0  0  0  0  0  0  0  0
   -2.1580   -2.1326    9.4486 H   0  0  0  0  0  0  0  0  0  0  0  0
    2.4552   -1.8903   -1.0028 H   0  0  0  0  0  0  0  0  0  0  0  0
    0.8168   -3.4864   -0.0002 H   0  0  0  0  0  0  0  0  0  0  0  0
   -1.2213   -4.2318    8.4681 H   0  0  0  0  0  0  0  0  0  0  0  0
   -2.0525   -0.0243    8.1230 H   0  0  0  0  0  0  0  0  0  0  0  0
    3.1124    0.1411    0.2525 H   0  0  0  0  0  0  0  0  0  0  0  0
   -0.1270   -3.0234    2.2474 H   0  0  0  0  0  0  0  0  0  0  0  0
   -0.2269   -4.2203    6.2095 H   0  0  0  0  0  0  0  0  0  0  0  0
   -1.0410    0.0058    5.8866 H   0  0  0  0  0  0  0  0  0  0  0  0
    1.4468    1.5898    2.9692 H   0  0  0  0  0  0  0  0  0  0  0  0
    2.8498    0.7455    3.6214 H   0  0  0  0  0  0  0  0  0  0  0  0
    2.9661    1.5790    2.0683 H   0  0  0  0  0  0  0  0  0  0  0  0
    1.0804   -0.3493    4.5213 H   0  0  0  0  0  0  0  0  0  0  0  0
   -0.5124   -0.3002    3.7793 H   0  0  0  0  0  0  0  0  0  0  0  0
    0.6609   -2.9006    4.4699 H   0  0  0  0  0  0  0  0  0  0  0  0
  1  4  1  0  0  0  0
  1  5  2  0  0  0  0
  1 16  1  0  0  0  0
  2  3  1  0  0  0  0
  2  6  2  0  0  0  0
  2 17  1  0  0  0  0
  3  7  2  0  0  0  0
  3 18  1  0  0  0  0
  4  8  2  0  0  0  0
  4 19  1  0  0  0  0
  5  9  1  0  0  0  0
  5 20  1  0  0  0  0
  6 10  1  0  0  0  0
  6 21  1  0  0  0  0
  7 11  1  0  0  0  0
  7 22  1  0  0  0  0
  8 12  1  0  0  0  0
  8 23  1  0  0  0  0
  9 12  2  0  0  0  0
  9 24  1  0  0  0  0
 10 11  2  0  0  0  0
 10 13  1  0  0  0  0
 11 14  1  0  0  0  0
 12 15  1  0  0  0  0
 13 25  1  0  0  0  0
 13 26  1  0  0  0  0
 13 27  1  0  0  0  0
 14 15  1  0  0  0  0
 14 28  1  0  0  0  0
 14 29  1  0  0  0  0
 15 30  1  0  0  0  0
M  END
$$$$
