
  -OEChem-12102412493D

 32 33  0     0  0  0  0  0  0999 V2000
    7.3683    3.8155   -1.0392 C   0  0  0  0  0  0  0  0  0  0  0  0
    7.0386    2.5237   -0.6321 C   0  0  0  0  0  0  0  0  0  0  0  0
    6.3797    4.6217   -1.6188 C   0  0  0  0  0  0  0  0  0  0  0  0
    5.7356    2.0383   -0.7995 C   0  0  0  0  0  0  0  0  0  0  0  0
    5.0725    4.1654   -1.7997 C   0  0  0  0  0  0  0  0  0  0  0  0
    4.7567    2.8531   -1.3828 C   0  0  0  0  0  0  0  0  0  0  0  0
    0.8256   -0.4550    0.0152 C   0  0  0  0  0  0  0  0  0  0  0  0
    1.1005   -0.4441   -1.4955 C   0  0  0  0  0  0  0  0  0  0  0  0
    2.0921   -0.1144    0.8135 C   0  0  0  0  0  0  0  0  0  0  0  0
    1.7200    0.8869   -1.9467 C   0  0  0  0  0  0  0  0  0  0  0  0
    2.7011    1.2191    0.3539 C   0  0  0  0  0  0  0  0  0  0  0  0
    2.9859    1.1971   -1.1508 C   0  0  0  0  0  0  0  0  0  0  0  0
    4.0050    5.0280   -2.4252 C   0  0  0  0  0  0  0  0  0  0  0  0
    3.4596    2.4727   -1.6147 O   0  0  0  0  0  0  0  0  0  0  0  0
    8.3778    4.1954   -0.9082 H   0  0  0  0  0  0  0  0  0  0  0  0
    7.7899    1.8824   -0.1781 H   0  0  0  0  0  0  0  0  0  0  0  0
    6.6286    5.6313   -1.9389 H   0  0  0  0  0  0  0  0  0  0  0  0
    5.5022    1.0319   -0.4721 H   0  0  0  0  0  0  0  0  0  0  0  0
    0.4347   -1.4322    0.3219 H   0  0  0  0  0  0  0  0  0  0  0  0
    0.0458    0.2836    0.2456 H   0  0  0  0  0  0  0  0  0  0  0  0
    1.7847   -1.2669   -1.7447 H   0  0  0  0  0  0  0  0  0  0  0  0
    0.1758   -0.6295   -2.0535 H   0  0  0  0  0  0  0  0  0  0  0  0
    1.8687   -0.0703    1.8853 H   0  0  0  0  0  0  0  0  0  0  0  0
    2.8309   -0.9175    0.6825 H   0  0  0  0  0  0  0  0  0  0  0  0
    1.9613    0.8652   -3.0148 H   0  0  0  0  0  0  0  0  0  0  0  0
    1.0058    1.7058   -1.7940 H   0  0  0  0  0  0  0  0  0  0  0  0
    1.9984    2.0388    0.5506 H   0  0  0  0  0  0  0  0  0  0  0  0
    3.6138    1.4418    0.9147 H   0  0  0  0  0  0  0  0  0  0  0  0
    3.7357    0.4277   -1.3798 H   0  0  0  0  0  0  0  0  0  0  0  0
    3.6025    4.5637   -3.3321 H   0  0  0  0  0  0  0  0  0  0  0  0
    3.1588    5.1663   -1.7437 H   0  0  0  0  0  0  0  0  0  0  0  0
    4.4041    6.0117   -2.6869 H   0  0  0  0  0  0  0  0  0  0  0  0
  1  2  1  0  0  0  0
  1  3  2  0  0  0  0
  1 15  1  0  0  0  0
  2  4  2  0  0  0  0
  2 16  1  0  0  0  0
  3  5  1  0  0  0  0
  3 17  1  0  0  0  0
  4  6  1  0  0  0  0
  4 18  1  0  0  0  0
  5  6  2  0  0  0  0
  5 13  1  0  0  0  0
  6 14  1  0  0  0  0
  7  8  1  0  0  0  0
  7  9  1  0  0  0  0
  7 19  1  0  0  0  0
  7 20  1  0  0  0  0
  8 10  1  0  0  0  0
  8 21  1  0  0  0  0
  8 22  1  0  0  0  0
  9 11  1  0  0  0  0
  9 23  1  0  0  0  0
  9 24  1  0  0  0  0
 10 12  1  0  0  0  0
 10 25  1  0  0  0  0
 10 26  1  0  0  0  0
 11 12  1  0  0  0  0
 11 27  1  0  0  0  0
 11 28  1  0  0  0  0
 12 14  1  0  0  0  0
 12 29  1  0  0  0  0
 13 30  1  0  0  0  0
 13 31  1  0  0  0  0
 13 32  1  0  0  0  0
M  END
$$$$
