32
0 1 C13H18O
C                     7.368329898401     3.815536639339    -1.039247583839
C                     7.038611072161     2.523715011266    -0.632074428092
C                     6.379656352097     4.621704342413    -1.618832363477
C                     5.735596123684     2.038305259217    -0.799525079135
C                     5.072461242328     4.165406099835    -1.799650999256
C                     4.756707640808     2.853113431288    -1.382761991168
C                     0.825600354984    -0.455030217562     0.015218411606
C                     1.100462443729    -0.444068401603    -1.495545487744
C                     2.092101911880    -0.114425009575     0.813452711105
C                     1.720032636588     0.886937767024    -1.946745377777
C                     2.701056053169     1.219053474980     0.353941854848
C                     2.985946716820     1.197120561294    -1.150752545940
C                     4.005041338023     5.027976124158    -2.425235730331
O                     3.459616571907     2.472726072339    -1.614719481777
H                     8.377775687556     4.195401266456    -0.908179104305
H                     7.789923524730     1.882353570753    -0.178134474337
H                     6.628634981149     5.631302195932    -1.938949666112
H                     5.502216543406     1.031912367475    -0.472087922150
H                     0.434675273276    -1.432163086248     0.321938693551
H                     0.045808553332     0.283626131205     0.245637610523
H                     1.784740896876    -1.266883400588    -1.744673910989
H                     0.175793796532    -0.629537631921    -2.053478754261
H                     1.868665687809    -0.070282930532     1.885295293326
H                     2.830860730522    -0.917493745068     0.682523299342
H                     1.961310858790     0.865164733648    -3.014787086473
H                     1.005838938454     1.705803331273    -1.794002810422
H                     1.998446869694     2.038760240491     0.550647025504
H                     3.613823414938     1.441762255015     0.914727868083
H                     3.735655905318     0.427695695748    -1.379810658737
H                     3.602531027268     4.563711245676    -3.332055076751
H                     3.158776972803     5.166343449707    -1.743661743154
H                     4.404148732390     6.011668805842    -2.686937991488
