22
0 1 C10H10N2
C                     1.889259640275    -0.990728510750    -0.141350313361
C                     0.854378858528    -0.343371211975     0.538095016151
C                     2.885860652786    -1.655873492907     0.578872014978
C                     0.835962184529    -0.359259524888     1.933871485803
C                     1.027549174370    -1.198845081031     6.146018903764
C                     2.369469480089    -0.744731520108     6.090131530151
C                     0.669021787320    -1.378630741727     4.821874639529
C                     2.882013518589    -1.702041352273     1.980054892395
C                     1.836614932314    -1.031773712462     2.643147598327
C                     3.952010886334    -2.458828196003     2.728016113314
N                     2.810553877861    -0.650263069048     4.834999155122
N                     1.758547709761    -1.044961348313     4.066921765257
H                     1.921202099654    -0.981021347499    -1.227639195303
H                     0.076493719409     0.181716665380    -0.009263045985
H                     3.681622736900    -2.167659495636     0.042789311589
H                     0.059218792868     0.165352823243     2.483070322618
H                     0.416159447343    -1.378709620882     7.019713810003
H                     3.029745582108    -0.480452816823     6.907201252159
H                    -0.244326880906    -1.730535491860     4.362436254091
H                     4.654444816901    -1.773190392438     3.209053459284
H                     3.520512803615    -3.072987366671     3.524072107743
H                     4.505092751436    -3.110388876365     2.046218093674
