30
0 1 C14H15N
C                    -3.234460013892    -1.647411414840     5.072831243034
C                     1.783653088451    -1.256150866531    -0.086357333902
C                     0.993324093218    -2.157669434248     0.628303230825
C                    -2.626617700381    -2.827967522916     5.519334436609
C                    -2.426821494511    -0.628399054235     4.560681171676
C                     2.588221385157    -0.345780243601     0.606382811013
C                     1.015681957371    -2.141821592809     2.026482852944
C                    -1.242835307381    -2.980859233576     5.462667262167
C                    -1.038635024176    -0.772946555759     4.489278565668
C                     2.618341575185    -0.318836408029     2.006491051226
C                     1.818603914981    -1.234393258671     2.724612223241
C                    -0.424049521888    -1.953897070193     4.948258731267
C                     3.498392730533     0.678426049536     2.726469725210
C                     1.861406276080    -1.226420272641     4.249867772799
N                     0.962021049246    -2.127776271827     4.942719716984
H                    -4.313246681725    -1.529056989303     5.118570595862
H                     1.774404705966    -1.256970503821    -1.173382042047
H                     0.357298431187    -2.866744385347     0.104606597399
H                    -3.234410244775    -3.635944900923     5.919584282241
H                    -2.879277381362     0.291144384675     4.197113392862
H                     3.204549690254     0.357549165933     0.050229516712
H                     0.386295098621    -2.833360034488     2.577288314104
H                    -0.782035888741    -3.898232717831     5.825182052417
H                    -0.443455651436     0.023017245417     4.055033185374
H                     2.911426071684     1.359582955111     3.354400499948
H                     4.221007304996     0.183125186945     3.385863847572
H                     4.062124980222     1.287695421690     2.015384932606
H                     2.877732353244    -1.471574410988     4.580530333676
H                     1.679972159580    -0.210315137546     4.618459491259
H                     1.260879186619    -3.094184263650     4.965154745758
