23
0 1 C9H13N
C                    -0.364402804577    -1.054171391909     9.627060945454
C                    -0.799178558022    -2.144513173314     8.870638662488
C                     0.033842867037     0.115059688846     8.977594785535
C                    -0.819793381236    -2.088037513396     7.472247131356
C                     0.008096972251     0.216604308151     7.580605383507
C                    -0.408688243019    -0.900558709050     6.823513940083
C                    -1.281446452678    -3.287707407069     6.673366002677
C                     0.384014545930     1.518347490330     6.912737303050
C                     0.845198141933    -0.835058852572     4.710422367603
N                    -0.452190668525    -0.802334893705     5.401633740724
H                    -0.346592398325    -1.112425907479    10.712239502481
H                    -1.116766097251    -3.057279794235     9.370164724642
H                     0.350529265102     0.976521568464     9.562036792830
H                    -2.214993624532    -3.089319812725     6.130342653327
H                    -0.533373067357    -3.600599720952     5.935147944934
H                    -1.470596655548    -4.139686124149     7.331223108663
H                     1.445230440119     1.545146770563     6.635607044360
H                    -0.198427801229     1.666696823190     5.998982687109
H                     0.205711316980     2.362208417327     7.585570468063
H                     1.430336805734     0.052319422729     4.959193400435
H                     0.669428624052    -0.823909157536     3.630368468520
H                     1.449707406324    -1.720794757607     4.961937443569
H                    -1.048287216498    -1.528436481398     5.019890825556
