
  -OEChem-12122420533D

 30 31  0     0  0  0  0  0  0999 V2000
   -3.2345   -1.6474    5.0728 C   0  0  0  0  0  0  0  0  0  0  0  0
    1.7837   -1.2562   -0.0864 C   0  0  0  0  0  0  0  0  0  0  0  0
    0.9933   -2.1577    0.6283 C   0  0  0  0  0  0  0  0  0  0  0  0
   -2.6266   -2.8280    5.5193 C   0  0  0  0  0  0  0  0  0  0  0  0
   -2.4268   -0.6284    4.5607 C   0  0  0  0  0  0  0  0  0  0  0  0
    2.5882   -0.3458    0.6064 C   0  0  0  0  0  0  0  0  0  0  0  0
    1.0157   -2.1418    2.0265 C   0  0  0  0  0  0  0  0  0  0  0  0
   -1.2428   -2.9809    5.4627 C   0  0  0  0  0  0  0  0  0  0  0  0
   -1.0386   -0.7729    4.4893 C   0  0  0  0  0  0  0  0  0  0  0  0
    2.6183   -0.3188    2.0065 C   0  0  0  0  0  0  0  0  0  0  0  0
    1.8186   -1.2344    2.7246 C   0  0  0  0  0  0  0  0  0  0  0  0
   -0.4240   -1.9539    4.9483 C   0  0  0  0  0  0  0  0  0  0  0  0
    3.4984    0.6784    2.7265 C   0  0  0  0  0  0  0  0  0  0  0  0
    1.8614   -1.2264    4.2499 C   0  0  0  0  0  0  0  0  0  0  0  0
    0.9620   -2.1278    4.9427 N   0  0  0  0  0  0  0  0  0  0  0  0
   -4.3132   -1.5291    5.1186 H   0  0  0  0  0  0  0  0  0  0  0  0
    1.7744   -1.2570   -1.1734 H   0  0  0  0  0  0  0  0  0  0  0  0
    0.3573   -2.8667    0.1046 H   0  0  0  0  0  0  0  0  0  0  0  0
   -3.2344   -3.6359    5.9196 H   0  0  0  0  0  0  0  0  0  0  0  0
   -2.8793    0.2911    4.1971 H   0  0  0  0  0  0  0  0  0  0  0  0
    3.2045    0.3575    0.0502 H   0  0  0  0  0  0  0  0  0  0  0  0
    0.3863   -2.8334    2.5773 H   0  0  0  0  0  0  0  0  0  0  0  0
   -0.7820   -3.8982    5.8252 H   0  0  0  0  0  0  0  0  0  0  0  0
   -0.4435    0.0230    4.0550 H   0  0  0  0  0  0  0  0  0  0  0  0
    2.9114    1.3596    3.3544 H   0  0  0  0  0  0  0  0  0  0  0  0
    4.2210    0.1831    3.3859 H   0  0  0  0  0  0  0  0  0  0  0  0
    4.0621    1.2877    2.0154 H   0  0  0  0  0  0  0  0  0  0  0  0
    2.8777   -1.4716    4.5805 H   0  0  0  0  0  0  0  0  0  0  0  0
    1.6800   -0.2103    4.6185 H   0  0  0  0  0  0  0  0  0  0  0  0
    1.2609   -3.0942    4.9652 H   0  0  0  0  0  0  0  0  0  0  0  0
  1  4  1  0  0  0  0
  1  5  2  0  0  0  0
  1 16  1  0  0  0  0
  2  3  1  0  0  0  0
  2  6  2  0  0  0  0
  2 17  1  0  0  0  0
  3  7  2  0  0  0  0
  3 18  1  0  0  0  0
  4  8  2  0  0  0  0
  4 19  1  0  0  0  0
  5  9  1  0  0  0  0
  5 20  1  0  0  0  0
  6 10  1  0  0  0  0
  6 21  1  0  0  0  0
  7 11  1  0  0  0  0
  7 22  1  0  0  0  0
  8 12  1  0  0  0  0
  8 23  1  0  0  0  0
  9 12  2  0  0  0  0
  9 24  1  0  0  0  0
 10 11  2  0  0  0  0
 10 13  1  0  0  0  0
 11 14  1  0  0  0  0
 12 15  1  0  0  0  0
 13 25  1  0  0  0  0
 13 26  1  0  0  0  0
 13 27  1  0  0  0  0
 14 15  1  0  0  0  0
 14 28  1  0  0  0  0
 14 29  1  0  0  0  0
 15 30  1  0  0  0  0
M  END
$$$$
