
  -OEChem-12122420533D

 32 33  0     0  0  0  0  0  0999 V2000
   -3.2326   -6.4301    2.8312 C   0  0  0  0  0  0  0  0  0  0  0  0
   -2.2860   -5.4331    3.0638 C   0  0  0  0  0  0  0  0  0  0  0  0
   -4.3672   -6.5001    3.6501 C   0  0  0  0  0  0  0  0  0  0  0  0
   -2.4674   -4.5125    4.1032 C   0  0  0  0  0  0  0  0  0  0  0  0
   -4.5756   -5.5955    4.6936 C   0  0  0  0  0  0  0  0  0  0  0  0
   -3.6048   -4.5941    4.9161 C   0  0  0  0  0  0  0  0  0  0  0  0
   -5.2464   -0.5639    6.6514 C   0  0  0  0  0  0  0  0  0  0  0  0
   -4.8968   -1.6255    7.7043 C   0  0  0  0  0  0  0  0  0  0  0  0
   -4.9278   -1.0618    5.2343 C   0  0  0  0  0  0  0  0  0  0  0  0
   -3.4336   -2.0736    7.5787 C   0  0  0  0  0  0  0  0  0  0  0  0
   -3.4634   -1.5067    5.1103 C   0  0  0  0  0  0  0  0  0  0  0  0
   -3.0985   -2.5593    6.1666 C   0  0  0  0  0  0  0  0  0  0  0  0
   -5.7946   -5.6618    5.5794 C   0  0  0  0  0  0  0  0  0  0  0  0
   -3.8655   -3.7667    5.9769 O   0  0  0  0  0  0  0  0  0  0  0  0
   -3.0955   -7.1439    2.0237 H   0  0  0  0  0  0  0  0  0  0  0  0
   -1.3996   -5.3610    2.4387 H   0  0  0  0  0  0  0  0  0  0  0  0
   -5.1111   -7.2741    3.4734 H   0  0  0  0  0  0  0  0  0  0  0  0
   -1.7194   -3.7454    4.2675 H   0  0  0  0  0  0  0  0  0  0  0  0
   -4.6686    0.3498    6.8515 H   0  0  0  0  0  0  0  0  0  0  0  0
   -6.3048   -0.2885    6.7273 H   0  0  0  0  0  0  0  0  0  0  0  0
   -5.0792   -1.2379    8.7134 H   0  0  0  0  0  0  0  0  0  0  0  0
   -5.5487   -2.4968    7.5749 H   0  0  0  0  0  0  0  0  0  0  0  0
   -5.5794   -1.9093    4.9900 H   0  0  0  0  0  0  0  0  0  0  0  0
   -5.1385   -0.2785    4.4974 H   0  0  0  0  0  0  0  0  0  0  0  0
   -2.7665   -1.2332    7.8107 H   0  0  0  0  0  0  0  0  0  0  0  0
   -3.2088   -2.8730    8.2927 H   0  0  0  0  0  0  0  0  0  0  0  0
   -3.2680   -1.8951    4.1063 H   0  0  0  0  0  0  0  0  0  0  0  0
   -2.7973   -0.6451    5.2528 H   0  0  0  0  0  0  0  0  0  0  0  0
   -2.0300   -2.8015    6.1166 H   0  0  0  0  0  0  0  0  0  0  0  0
   -5.5154   -5.8196    6.6268 H   0  0  0  0  0  0  0  0  0  0  0  0
   -6.3590   -4.7234    5.5452 H   0  0  0  0  0  0  0  0  0  0  0  0
   -6.4564   -6.4756    5.2709 H   0  0  0  0  0  0  0  0  0  0  0  0
  1  2  1  0  0  0  0
  1  3  2  0  0  0  0
  1 15  1  0  0  0  0
  2  4  2  0  0  0  0
  2 16  1  0  0  0  0
  3  5  1  0  0  0  0
  3 17  1  0  0  0  0
  4  6  1  0  0  0  0
  4 18  1  0  0  0  0
  5  6  2  0  0  0  0
  5 13  1  0  0  0  0
  6 14  1  0  0  0  0
  7  8  1  0  0  0  0
  7  9  1  0  0  0  0
  7 19  1  0  0  0  0
  7 20  1  0  0  0  0
  8 10  1  0  0  0  0
  8 21  1  0  0  0  0
  8 22  1  0  0  0  0
  9 11  1  0  0  0  0
  9 23  1  0  0  0  0
  9 24  1  0  0  0  0
 10 12  1  0  0  0  0
 10 25  1  0  0  0  0
 10 26  1  0  0  0  0
 11 12  1  0  0  0  0
 11 27  1  0  0  0  0
 11 28  1  0  0  0  0
 12 14  1  0  0  0  0
 12 29  1  0  0  0  0
 13 30  1  0  0  0  0
 13 31  1  0  0  0  0
 13 32  1  0  0  0  0
M  END
$$$$
