32
0 1 C13H18O
C                     7.131563483431     3.952441266160    -1.888827006154
C                     6.506344461434     2.841842210706    -2.453694018162
C                     6.690287602886     4.425393826830    -0.645925832085
C                     5.450183744221     2.207577200632    -1.787620472878
C                     5.640606433071     3.813647741285     0.042343919006
C                     5.019877495582     2.688435430700    -0.544232085351
C                     0.631162438796    -0.325329481197    -0.625251005467
C                     1.307579419426     0.377350495605    -1.810978566627
C                     1.665796713922    -0.788885696142     0.410489239446
C                     2.201156841705     1.534686439971    -1.339566906494
C                     2.563606130400     0.369877846627     0.868979815582
C                     3.237556721886     1.043201283743    -0.324639375905
C                     5.163296510830     4.317076316032     1.381566294093
O                     4.013669318438     2.132057188458     0.203380444829
H                     7.949479058168     4.447809043209    -2.404658992000
H                     6.831647065721     2.459866065975    -3.418137021541
H                     7.172578569668     5.291878963454    -0.198321785867
H                     4.977401769117     1.347977627913    -2.248138877252
H                     0.038979061044    -1.178219737773    -0.976807001360
H                    -0.071067695044     0.371253929630    -0.147324602359
H                     1.915728661011    -0.350816608327    -2.365738928924
H                     0.555057638178     0.752333023737    -2.513695585835
H                     1.165343723798    -1.234383812858     1.277539558498
H                     2.288837235053    -1.579720457787    -0.029660271531
H                     2.694033411200     2.014857062463    -2.190294659231
H                     1.590222566919     2.303625923013    -0.849907131178
H                     1.966163540815     1.122351927841     1.398886142488
H                     3.331429292948     0.018825749150     1.566560815411
H                     3.910509973084     0.315255254174    -0.797707085536
H                     4.104229584126     4.594422632484     1.345143767531
H                     5.256828418771     3.543265079419     2.151191289169
H                     5.740118969553     5.190921471556     1.696369652096
