
  -OEChem-12122420533D

 32 33  0     0  0  0  0  0  0999 V2000
    7.1316    3.9524   -1.8888 C   0  0  0  0  0  0  0  0  0  0  0  0
    6.5063    2.8418   -2.4537 C   0  0  0  0  0  0  0  0  0  0  0  0
    6.6903    4.4254   -0.6459 C   0  0  0  0  0  0  0  0  0  0  0  0
    5.4502    2.2076   -1.7876 C   0  0  0  0  0  0  0  0  0  0  0  0
    5.6406    3.8136    0.0423 C   0  0  0  0  0  0  0  0  0  0  0  0
    5.0199    2.6884   -0.5442 C   0  0  0  0  0  0  0  0  0  0  0  0
    0.6312   -0.3253   -0.6253 C   0  0  0  0  0  0  0  0  0  0  0  0
    1.3076    0.3774   -1.8110 C   0  0  0  0  0  0  0  0  0  0  0  0
    1.6658   -0.7889    0.4105 C   0  0  0  0  0  0  0  0  0  0  0  0
    2.2012    1.5347   -1.3396 C   0  0  0  0  0  0  0  0  0  0  0  0
    2.5636    0.3699    0.8690 C   0  0  0  0  0  0  0  0  0  0  0  0
    3.2376    1.0432   -0.3246 C   0  0  0  0  0  0  0  0  0  0  0  0
    5.1633    4.3171    1.3816 C   0  0  0  0  0  0  0  0  0  0  0  0
    4.0137    2.1321    0.2034 O   0  0  0  0  0  0  0  0  0  0  0  0
    7.9495    4.4478   -2.4047 H   0  0  0  0  0  0  0  0  0  0  0  0
    6.8316    2.4599   -3.4181 H   0  0  0  0  0  0  0  0  0  0  0  0
    7.1726    5.2919   -0.1983 H   0  0  0  0  0  0  0  0  0  0  0  0
    4.9774    1.3480   -2.2481 H   0  0  0  0  0  0  0  0  0  0  0  0
    0.0390   -1.1782   -0.9768 H   0  0  0  0  0  0  0  0  0  0  0  0
   -0.0711    0.3713   -0.1473 H   0  0  0  0  0  0  0  0  0  0  0  0
    1.9157   -0.3508   -2.3657 H   0  0  0  0  0  0  0  0  0  0  0  0
    0.5551    0.7523   -2.5137 H   0  0  0  0  0  0  0  0  0  0  0  0
    1.1653   -1.2344    1.2775 H   0  0  0  0  0  0  0  0  0  0  0  0
    2.2888   -1.5797   -0.0297 H   0  0  0  0  0  0  0  0  0  0  0  0
    2.6940    2.0149   -2.1903 H   0  0  0  0  0  0  0  0  0  0  0  0
    1.5902    2.3036   -0.8499 H   0  0  0  0  0  0  0  0  0  0  0  0
    1.9662    1.1224    1.3989 H   0  0  0  0  0  0  0  0  0  0  0  0
    3.3314    0.0188    1.5666 H   0  0  0  0  0  0  0  0  0  0  0  0
    3.9105    0.3153   -0.7977 H   0  0  0  0  0  0  0  0  0  0  0  0
    4.1042    4.5944    1.3451 H   0  0  0  0  0  0  0  0  0  0  0  0
    5.2568    3.5433    2.1512 H   0  0  0  0  0  0  0  0  0  0  0  0
    5.7401    5.1909    1.6964 H   0  0  0  0  0  0  0  0  0  0  0  0
  1  2  1  0  0  0  0
  1  3  2  0  0  0  0
  1 15  1  0  0  0  0
  2  4  2  0  0  0  0
  2 16  1  0  0  0  0
  3  5  1  0  0  0  0
  3 17  1  0  0  0  0
  4  6  1  0  0  0  0
  4 18  1  0  0  0  0
  5  6  2  0  0  0  0
  5 13  1  0  0  0  0
  6 14  1  0  0  0  0
  7  8  1  0  0  0  0
  7  9  1  0  0  0  0
  7 19  1  0  0  0  0
  7 20  1  0  0  0  0
  8 10  1  0  0  0  0
  8 21  1  0  0  0  0
  8 22  1  0  0  0  0
  9 11  1  0  0  0  0
  9 23  1  0  0  0  0
  9 24  1  0  0  0  0
 10 12  1  0  0  0  0
 10 25  1  0  0  0  0
 10 26  1  0  0  0  0
 11 12  1  0  0  0  0
 11 27  1  0  0  0  0
 11 28  1  0  0  0  0
 12 14  1  0  0  0  0
 12 29  1  0  0  0  0
 13 30  1  0  0  0  0
 13 31  1  0  0  0  0
 13 32  1  0  0  0  0
M  END
$$$$
