
  -OEChem-12122420533D

 21 21  0     0  0  0  0  0  0999 V2000
    1.9398   -1.0534   -0.1270 C   0  0  0  0  0  0  0  0  0  0  0  0
    0.8451   -0.4969    0.5342 C   0  0  0  0  0  0  0  0  0  0  0  0
    2.9657   -1.6369    0.6201 C   0  0  0  0  0  0  0  0  0  0  0  0
    0.7690   -0.4958    1.9337 C   0  0  0  0  0  0  0  0  0  0  0  0
    1.8035   -1.0821    2.6991 C   0  0  0  0  0  0  0  0  0  0  0  0
    2.8915   -1.6682    2.0136 C   0  0  0  0  0  0  0  0  0  0  0  0
   -0.4256    0.1262    2.6221 C   0  0  0  0  0  0  0  0  0  0  0  0
    2.8303   -0.6259    4.9150 C   0  0  0  0  0  0  0  0  0  0  0  0
    1.7197   -1.1476    4.1052 N   0  0  0  0  0  0  0  0  0  0  0  0
    3.8667   -2.2905    2.7688 O   0  0  0  0  0  0  0  0  0  0  0  0
    1.9968   -1.0388   -1.2116 H   0  0  0  0  0  0  0  0  0  0  0  0
    0.0405   -0.0433   -0.0391 H   0  0  0  0  0  0  0  0  0  0  0  0
    3.8213   -2.0900    0.1203 H   0  0  0  0  0  0  0  0  0  0  0  0
   -1.0046   -0.6123    3.1919 H   0  0  0  0  0  0  0  0  0  0  0  0
   -0.1290    0.9208    3.3187 H   0  0  0  0  0  0  0  0  0  0  0  0
   -1.1039    0.5706    1.8899 H   0  0  0  0  0  0  0  0  0  0  0  0
    3.0833    0.4180    4.6718 H   0  0  0  0  0  0  0  0  0  0  0  0
    3.7191   -1.2392    4.7741 H   0  0  0  0  0  0  0  0  0  0  0  0
    2.5381   -0.6785    5.9678 H   0  0  0  0  0  0  0  0  0  0  0  0
    0.8430   -0.7570    4.4265 H   0  0  0  0  0  0  0  0  0  0  0  0
    4.5199   -2.6748    2.1632 H   0  0  0  0  0  0  0  0  0  0  0  0
  1  2  1  0  0  0  0
  1  3  2  0  0  0  0
  1 11  1  0  0  0  0
  2  4  2  0  0  0  0
  2 12  1  0  0  0  0
  3  6  1  0  0  0  0
  3 13  1  0  0  0  0
  4  5  1  0  0  0  0
  4  7  1  0  0  0  0
  5  6  2  0  0  0  0
  5  9  1  0  0  0  0
  6 10  1  0  0  0  0
  7 14  1  0  0  0  0
  7 15  1  0  0  0  0
  7 16  1  0  0  0  0
  8  9  1  0  0  0  0
  8 17  1  0  0  0  0
  8 18  1  0  0  0  0
  8 19  1  0  0  0  0
  9 20  1  0  0  0  0
 10 21  1  0  0  0  0
M  END
$$$$
