
  -OEChem-12102412493D

 25 26  0     0  0  0  0  0  0999 V2000
    2.3145   -6.2618    5.2870 C   0  0  0  0  0  0  0  0  0  0  0  0
    1.5606   -5.2100    5.8098 C   0  0  0  0  0  0  0  0  0  0  0  0
    1.7922   -7.5596    5.2884 C   0  0  0  0  0  0  0  0  0  0  0  0
    0.2883   -5.4717    6.3268 C   0  0  0  0  0  0  0  0  0  0  0  0
   -4.2612   -8.4403    4.8681 C   0  0  0  0  0  0  0  0  0  0  0  0
   -3.6037   -8.3611    6.0773 C   0  0  0  0  0  0  0  0  0  0  0  0
   -2.6690   -7.0248    4.5869 C   0  0  0  0  0  0  0  0  0  0  0  0
    0.5196   -7.8368    5.8029 C   0  0  0  0  0  0  0  0  0  0  0  0
   -0.2386   -6.7680    6.3300 C   0  0  0  0  0  0  0  0  0  0  0  0
   -0.0191   -9.2481    5.7740 C   0  0  0  0  0  0  0  0  0  0  0  0
   -1.6213   -7.0002    6.8982 C   0  0  0  0  0  0  0  0  0  0  0  0
   -3.6692   -7.6038    3.9442 N   0  0  0  0  0  0  0  0  0  0  0  0
   -2.5802   -7.4512    5.8862 N   0  0  0  0  0  0  0  0  0  0  0  0
    3.3050   -6.0768    4.8792 H   0  0  0  0  0  0  0  0  0  0  0  0
    1.9542   -4.1971    5.8141 H   0  0  0  0  0  0  0  0  0  0  0  0
    2.3854   -8.3749    4.8805 H   0  0  0  0  0  0  0  0  0  0  0  0
   -0.3069   -4.6552    6.7303 H   0  0  0  0  0  0  0  0  0  0  0  0
   -5.1168   -9.0526    4.6128 H   0  0  0  0  0  0  0  0  0  0  0  0
   -3.7576   -8.8552    7.0265 H   0  0  0  0  0  0  0  0  0  0  0  0
   -1.9715   -6.3119    4.1674 H   0  0  0  0  0  0  0  0  0  0  0  0
   -0.3888   -9.5620    6.7568 H   0  0  0  0  0  0  0  0  0  0  0  0
   -0.8565   -9.3424    5.0751 H   0  0  0  0  0  0  0  0  0  0  0  0
    0.7575   -9.9545    5.4704 H   0  0  0  0  0  0  0  0  0  0  0  0
   -1.5950   -7.7696    7.6762 H   0  0  0  0  0  0  0  0  0  0  0  0
   -1.9914   -6.0811    7.3640 H   0  0  0  0  0  0  0  0  0  0  0  0
  1  2  1  0  0  0  0
  1  3  2  0  0  0  0
  1 14  1  0  0  0  0
  2  4  2  0  0  0  0
  2 15  1  0  0  0  0
  3  8  1  0  0  0  0
  3 16  1  0  0  0  0
  4  9  1  0  0  0  0
  4 17  1  0  0  0  0
  5  6  2  0  0  0  0
  5 12  1  0  0  0  0
  5 18  1  0  0  0  0
  6 13  1  0  0  0  0
  6 19  1  0  0  0  0
  7 12  2  0  0  0  0
  7 13  1  0  0  0  0
  7 20  1  0  0  0  0
  8  9  2  0  0  0  0
  8 10  1  0  0  0  0
  9 11  1  0  0  0  0
 10 21  1  0  0  0  0
 10 22  1  0  0  0  0
 10 23  1  0  0  0  0
 11 13  1  0  0  0  0
 11 24  1  0  0  0  0
 11 25  1  0  0  0  0
M  END
$$$$
