27
0 1 C11H15N
C                    -4.885884983869     3.763570389480    -3.763557064798
C                    -4.934408719010     3.248302654710    -2.467654601997
C                    -3.866353526879     3.343032863278    -4.623246089633
C                    -3.957062581324     2.347050675889    -2.038058292213
C                    -2.885522815471     2.428881136883    -4.221389677865
C                    -2.916263947330     1.937316921579    -2.891565484748
C                     0.208811316457     0.280756318523    -1.727626107306
C                    -0.907346211126    -0.627108041761    -1.143609315068
C                    -0.542496955611     1.478155978461    -2.350328055566
C                    -2.174688620027     0.230034804591    -1.250010913316
C                    -1.862050194786     1.945786974347    -5.221951211374
N                    -1.935237747276     1.008560936066    -2.465030528628
H                    -5.639287231327     4.466364906690    -4.109325475996
H                    -5.726973953635     3.547098984185    -1.785882178658
H                    -3.843903495931     3.713489830861    -5.646346524111
H                    -4.005665439041     1.963426493403    -1.024732422287
H                     0.906098448306     0.621043443380    -0.957204308938
H                     0.792045069302    -0.253906988709    -2.481768954146
H                    -1.019821102136    -1.529844018693    -1.750058934703
H                    -0.708665828322    -0.937368334034    -0.114082975885
H                    -0.489075886473     2.359601976143    -1.689101270813
H                    -0.139194328986     1.769690541369    -3.320300706792
H                    -3.094407026089    -0.354629631761    -1.343297193071
H                    -2.265706994426     0.871241196182    -0.354368662728
H                    -0.936789541168     2.533767224518    -5.184485380190
H                    -1.597340360243     0.901184667481    -5.032627512463
H                    -2.253863003015     2.027068535697    -6.239974814945
