20
0 1 C9H10O
C                     2.161093581225    -0.824127845310    -0.006369880713
C                     0.947704154519    -0.502541107522     0.605962818936
C                     3.219936205584    -1.269389811404     0.781756324421
C                     0.813784288254    -0.631668623257     1.990024416416
C                     3.098809288347    -1.407873630024     2.178647786331
C                     1.864350422285    -1.081341974623     2.803815261175
C                     4.275438282382    -1.899920264441     2.964295187824
C                     1.619522865653    -1.187742133510     4.290209274657
C                     5.586641771935    -2.166328143983     2.234915887072
O                     4.215909799135    -2.096651444156     4.174873820982
H                     2.281049117081    -0.728914868373    -1.082103317752
H                     0.108230524648    -0.151655124062     0.010849408136
H                     4.157764262319    -1.515810101480     0.296480247827
H                    -0.134523218246    -0.376690616915     2.456879940142
H                     1.741439807423    -2.214950269043     4.643106009806
H                     2.335282721950    -0.589997817663     4.860004217688
H                     0.606390335913    -0.849214184204     4.525821792260
H                     5.945478616526    -1.273227367493     1.713162498198
H                     5.470993108853    -2.960772719721     1.489939336748
H                     6.328319050520    -2.475793479791     2.971973226353
