
  -OEChem-12122420533D

 29 30  0     0  0  0  0  0  0999 V2000
    2.1856   -0.9766   -0.0840 C   0  0  0  0  0  0  0  0  0  0  0  0
    2.0046    0.2351    0.5902 C   0  0  0  0  0  0  0  0  0  0  0  0
    2.1873   -2.1775    0.6348 C   0  0  0  0  0  0  0  0  0  0  0  0
    0.4302    0.7066    8.8993 C   0  0  0  0  0  0  0  0  0  0  0  0
    1.1419    1.6187    8.1148 C   0  0  0  0  0  0  0  0  0  0  0  0
    1.8105    0.2444    1.9740 C   0  0  0  0  0  0  0  0  0  0  0  0
    2.0048   -2.1668    2.0180 C   0  0  0  0  0  0  0  0  0  0  0  0
   -0.1122   -0.4385    8.3119 C   0  0  0  0  0  0  0  0  0  0  0  0
    1.3155    1.3603    6.7546 C   0  0  0  0  0  0  0  0  0  0  0  0
    1.8007   -0.9577    2.6993 C   0  0  0  0  0  0  0  0  0  0  0  0
    0.0322   -0.7098    6.9428 C   0  0  0  0  0  0  0  0  0  0  0  0
    0.7729    0.2074    6.1728 C   0  0  0  0  0  0  0  0  0  0  0  0
    1.6178   -1.0343    4.1914 C   0  0  0  0  0  0  0  0  0  0  0  0
   -0.6050   -1.9321    6.3345 C   0  0  0  0  0  0  0  0  0  0  0  0
    0.9479    0.0218    4.7665 N   0  0  0  0  0  0  0  0  0  0  0  0
    2.0216   -1.9976    4.8396 O   0  0  0  0  0  0  0  0  0  0  0  0
    2.3333   -0.9836   -1.1608 H   0  0  0  0  0  0  0  0  0  0  0  0
    2.0220    1.1727    0.0408 H   0  0  0  0  0  0  0  0  0  0  0  0
    2.3356   -3.1211    0.1163 H   0  0  0  0  0  0  0  0  0  0  0  0
    0.2921    0.8887    9.9620 H   0  0  0  0  0  0  0  0  0  0  0  0
    1.5688    2.5145    8.5576 H   0  0  0  0  0  0  0  0  0  0  0  0
    1.7057    1.2033    2.4761 H   0  0  0  0  0  0  0  0  0  0  0  0
    2.0212   -3.0862    2.5947 H   0  0  0  0  0  0  0  0  0  0  0  0
   -0.6789   -1.1362    8.9242 H   0  0  0  0  0  0  0  0  0  0  0  0
    1.8910    2.0439    6.1347 H   0  0  0  0  0  0  0  0  0  0  0  0
   -1.0478   -1.7029    5.3598 H   0  0  0  0  0  0  0  0  0  0  0  0
    0.1434   -2.7124    6.1688 H   0  0  0  0  0  0  0  0  0  0  0  0
   -1.3898   -2.3247    6.9868 H   0  0  0  0  0  0  0  0  0  0  0  0
    0.6972    0.8010    4.1738 H   0  0  0  0  0  0  0  0  0  0  0  0
  1  2  1  0  0  0  0
  1  3  2  0  0  0  0
  1 17  1  0  0  0  0
  2  6  2  0  0  0  0
  2 18  1  0  0  0  0
  3  7  1  0  0  0  0
  3 19  1  0  0  0  0
  4  5  1  0  0  0  0
  4  8  2  0  0  0  0
  4 20  1  0  0  0  0
  5  9  2  0  0  0  0
  5 21  1  0  0  0  0
  6 10  1  0  0  0  0
  6 22  1  0  0  0  0
  7 10  2  0  0  0  0
  7 23  1  0  0  0  0
  8 11  1  0  0  0  0
  8 24  1  0  0  0  0
  9 12  1  0  0  0  0
  9 25  1  0  0  0  0
 10 13  1  0  0  0  0
 11 12  2  0  0  0  0
 11 14  1  0  0  0  0
 12 15  1  0  0  0  0
 13 15  1  0  0  0  0
 13 16  2  0  0  0  0
 14 26  1  0  0  0  0
 14 27  1  0  0  0  0
 14 28  1  0  0  0  0
 15 29  1  0  0  0  0
M  END
$$$$
