
  -OEChem-12122420533D

 20 20  0     0  0  0  0  0  0999 V2000
    1.9425   -0.9181   -0.1277 C   0  0  0  0  0  0  0  0  0  0  0  0
    0.7906   -0.5066    0.5430 C   0  0  0  0  0  0  0  0  0  0  0  0
    2.9756   -1.5161    0.6054 C   0  0  0  0  0  0  0  0  0  0  0  0
    0.6738   -0.6840    1.9250 C   0  0  0  0  0  0  0  0  0  0  0  0
    2.8828   -1.7149    1.9840 C   0  0  0  0  0  0  0  0  0  0  0  0
    1.7094   -1.2894    2.6602 C   0  0  0  0  0  0  0  0  0  0  0  0
    4.0005   -2.3802    2.7504 C   0  0  0  0  0  0  0  0  0  0  0  0
    0.5404   -0.8844    4.8082 C   0  0  0  0  0  0  0  0  0  0  0  0
    1.5936   -1.5252    4.0355 N   0  0  0  0  0  0  0  0  0  0  0  0
    2.0398   -0.7792   -1.2008 H   0  0  0  0  0  0  0  0  0  0  0  0
   -0.0244   -0.0387   -0.0040 H   0  0  0  0  0  0  0  0  0  0  0  0
    3.8772   -1.8435    0.0913 H   0  0  0  0  0  0  0  0  0  0  0  0
   -0.2279   -0.3498    2.4271 H   0  0  0  0  0  0  0  0  0  0  0  0
    4.4489   -1.7071    3.4955 H   0  0  0  0  0  0  0  0  0  0  0  0
    3.6450   -3.2679    3.2880 H   0  0  0  0  0  0  0  0  0  0  0  0
    4.8033   -2.6929    2.0781 H   0  0  0  0  0  0  0  0  0  0  0  0
   -0.4394   -1.2752    4.5148 H   0  0  0  0  0  0  0  0  0  0  0  0
    0.5208    0.2111    4.6963 H   0  0  0  0  0  0  0  0  0  0  0  0
    0.6866   -1.1244    5.8643 H   0  0  0  0  0  0  0  0  0  0  0  0
    2.4837   -1.5516    4.5153 H   0  0  0  0  0  0  0  0  0  0  0  0
  1  2  1  0  0  0  0
  1  3  2  0  0  0  0
  1 10  1  0  0  0  0
  2  4  2  0  0  0  0
  2 11  1  0  0  0  0
  3  5  1  0  0  0  0
  3 12  1  0  0  0  0
  4  6  1  0  0  0  0
  4 13  1  0  0  0  0
  5  6  2  0  0  0  0
  5  7  1  0  0  0  0
  6  9  1  0  0  0  0
  7 14  1  0  0  0  0
  7 15  1  0  0  0  0
  7 16  1  0  0  0  0
  8  9  1  0  0  0  0
  8 17  1  0  0  0  0
  8 18  1  0  0  0  0
  8 19  1  0  0  0  0
  9 20  1  0  0  0  0
M  END
$$$$
