
  -OEChem-12122420533D

 30 31  0     0  0  0  0  0  0999 V2000
    1.3061   -6.3738    5.0421 C   0  0  0  0  0  0  0  0  0  0  0  0
    1.8093   -1.3046   -0.0549 C   0  0  0  0  0  0  0  0  0  0  0  0
    0.8959   -1.9662    0.7674 C   0  0  0  0  0  0  0  0  0  0  0  0
    0.3102   -5.6023    5.6549 C   0  0  0  0  0  0  0  0  0  0  0  0
    2.3650   -5.7208    4.4056 C   0  0  0  0  0  0  0  0  0  0  0  0
    2.9228   -0.6795    0.5155 C   0  0  0  0  0  0  0  0  0  0  0  0
    1.1030   -1.9954    2.1501 C   0  0  0  0  0  0  0  0  0  0  0  0
    0.3777   -4.2107    5.6384 C   0  0  0  0  0  0  0  0  0  0  0  0
    2.4394   -4.3256    4.3734 C   0  0  0  0  0  0  0  0  0  0  0  0
    3.1422   -0.7029    1.8987 C   0  0  0  0  0  0  0  0  0  0  0  0
    2.2141   -1.3717    2.7262 C   0  0  0  0  0  0  0  0  0  0  0  0
    1.4458   -3.5478    4.9986 C   0  0  0  0  0  0  0  0  0  0  0  0
    4.3565   -0.0180    2.4850 C   0  0  0  0  0  0  0  0  0  0  0  0
    2.4338   -1.3839    4.2362 C   0  0  0  0  0  0  0  0  0  0  0  0
    1.5000   -2.1524    5.0354 N   0  0  0  0  0  0  0  0  0  0  0  0
    1.2529   -7.4587    5.0566 H   0  0  0  0  0  0  0  0  0  0  0  0
    1.6609   -1.2757   -1.1314 H   0  0  0  0  0  0  0  0  0  0  0  0
    0.0292   -2.4628    0.3387 H   0  0  0  0  0  0  0  0  0  0  0  0
   -0.5248   -6.0878    6.1543 H   0  0  0  0  0  0  0  0  0  0  0  0
    3.1421   -6.3004    3.9130 H   0  0  0  0  0  0  0  0  0  0  0  0
    3.6355   -0.1637   -0.1247 H   0  0  0  0  0  0  0  0  0  0  0  0
    0.3989   -2.5258    2.7831 H   0  0  0  0  0  0  0  0  0  0  0  0
   -0.3960   -3.6231    6.1298 H   0  0  0  0  0  0  0  0  0  0  0  0
    3.2562   -3.8494    3.8419 H   0  0  0  0  0  0  0  0  0  0  0  0
    4.0780    0.7506    3.2158 H   0  0  0  0  0  0  0  0  0  0  0  0
    5.0117   -0.7272    3.0052 H   0  0  0  0  0  0  0  0  0  0  0  0
    4.9479    0.4664    1.7038 H   0  0  0  0  0  0  0  0  0  0  0  0
    3.4472   -1.7370    4.4585 H   0  0  0  0  0  0  0  0  0  0  0  0
    2.4031   -0.3537    4.6105 H   0  0  0  0  0  0  0  0  0  0  0  0
    0.6067   -1.7048    5.1950 H   0  0  0  0  0  0  0  0  0  0  0  0
  1  4  1  0  0  0  0
  1  5  2  0  0  0  0
  1 16  1  0  0  0  0
  2  3  1  0  0  0  0
  2  6  2  0  0  0  0
  2 17  1  0  0  0  0
  3  7  2  0  0  0  0
  3 18  1  0  0  0  0
  4  8  2  0  0  0  0
  4 19  1  0  0  0  0
  5  9  1  0  0  0  0
  5 20  1  0  0  0  0
  6 10  1  0  0  0  0
  6 21  1  0  0  0  0
  7 11  1  0  0  0  0
  7 22  1  0  0  0  0
  8 12  1  0  0  0  0
  8 23  1  0  0  0  0
  9 12  2  0  0  0  0
  9 24  1  0  0  0  0
 10 11  2  0  0  0  0
 10 13  1  0  0  0  0
 11 14  1  0  0  0  0
 12 15  1  0  0  0  0
 13 25  1  0  0  0  0
 13 26  1  0  0  0  0
 13 27  1  0  0  0  0
 14 15  1  0  0  0  0
 14 28  1  0  0  0  0
 14 29  1  0  0  0  0
 15 30  1  0  0  0  0
M  END
$$$$
