20
0 1 C8H11N
C                     1.942540509202    -0.918061446380    -0.127732017221
C                     0.790614078872    -0.506591551603     0.543036345942
C                     2.975624734318    -1.516145748001     0.605373516611
C                     0.673836135748    -0.683975991329     1.925026346936
C                     2.882769628155    -1.714933892452     1.983988356562
C                     1.709415891796    -1.289360102068     2.660235386639
C                     4.000536039670    -2.380161585008     2.750418227266
C                     0.540362905631    -0.884375861394     4.808240647993
N                     1.593584503823    -1.525158006323     4.035508678885
H                     2.039765179764    -0.779244785878    -1.200821870127
H                    -0.024407790832    -0.038743619519    -0.003953324188
H                     3.877228388439    -1.843452605682     0.091272067246
H                    -0.227852525400    -0.349804249989     2.427084897759
H                     4.448851538190    -1.707118299599     3.495535544019
H                     3.645031894943    -3.267918174388     3.288021722457
H                     4.803338207435    -2.692937760368     2.078133512097
H                    -0.439422315654    -1.275223312805     4.514789188266
H                     0.520794006466     0.211125847616     4.696295807336
H                     0.686553274849    -1.124366928824     5.864319935417
H                     2.483677505841    -1.551615401036     4.515321143657
