25
0 1 C11H12N2
C                     2.314540017771    -6.261847831062     5.286978163346
C                     1.560629860735    -5.209958388872     5.809843692212
C                     1.792192950277    -7.559585411637     5.288378435038
C                     0.288262755466    -5.471711070034     6.326841825877
C                    -4.261183798816    -8.440313638642     4.868141767247
C                    -3.603747235251    -8.361061667691     6.077282594174
C                    -2.669043964653    -7.024808146093     4.586907395324
C                     0.519575099679    -7.836785537593     5.802880233422
C                    -0.238567670694    -6.768047415813     6.330024911468
C                    -0.019084024671    -9.248146752359     5.774015352281
C                    -1.621261255124    -7.000245607969     6.898244949036
N                    -3.669203805033    -7.603840618184     3.944206771335
N                    -2.580225300541    -7.451212125561     5.886202736021
H                     3.305003654160    -6.076849896552     4.879220145071
H                     1.954237944985    -4.197143407793     5.814065044657
H                     2.385404249469    -8.374871758819     4.880505595892
H                    -0.306908219232    -4.655166175399     6.730271926001
H                    -5.116784024805    -9.052608232241     4.612809450305
H                    -3.757565715127    -8.855245971659     7.026506487432
H                    -1.971523465654    -6.311915731763     4.167365711839
H                    -0.388789364820    -9.562012440095     6.756777793346
H                    -0.856492291764    -9.342399981755     5.075141556651
H                     0.757499624266    -9.954531138973     5.470353873366
H                    -1.595008863663    -7.769554430245     7.676154186885
H                    -1.991432768644    -6.081055061466     7.363965541106
