
  -OEChem-12102412493D

 20 20  0     0  0  0  0  0  0999 V2000
    1.9474   -0.8046   -0.2173 C   0  0  0  0  0  0  0  0  0  0  0  0
    0.8480   -0.3474    0.5147 C   0  0  0  0  0  0  0  0  0  0  0  0
    2.9614   -1.4960    0.4407 C   0  0  0  0  0  0  0  0  0  0  0  0
    0.7843   -0.5830    1.8895 C   0  0  0  0  0  0  0  0  0  0  0  0
    2.8901   -1.7659    1.8199 C   0  0  0  0  0  0  0  0  0  0  0  0
    1.7856   -1.2944    2.5689 C   0  0  0  0  0  0  0  0  0  0  0  0
    4.0467   -2.5560    2.3736 C   0  0  0  0  0  0  0  0  0  0  0  0
    1.6455   -1.4590    4.0682 C   0  0  0  0  0  0  0  0  0  0  0  0
    3.8402   -3.5392    3.5144 C   0  0  0  0  0  0  0  0  0  0  0  0
    5.1545   -2.4567    1.8573 O   0  0  0  0  0  0  0  0  0  0  0  0
    2.0152   -0.6203   -1.2861 H   0  0  0  0  0  0  0  0  0  0  0  0
    0.0478    0.1993    0.0221 H   0  0  0  0  0  0  0  0  0  0  0  0
    3.8331   -1.8478   -0.1019 H   0  0  0  0  0  0  0  0  0  0  0  0
   -0.0615   -0.1988    2.4551 H   0  0  0  0  0  0  0  0  0  0  0  0
    1.4079   -2.4894    4.3500 H   0  0  0  0  0  0  0  0  0  0  0  0
    2.5582   -1.1746    4.5992 H   0  0  0  0  0  0  0  0  0  0  0  0
    0.8376   -0.8247    4.4415 H   0  0  0  0  0  0  0  0  0  0  0  0
    2.8617   -4.0245    3.4717 H   0  0  0  0  0  0  0  0  0  0  0  0
    3.9198   -3.0271    4.4783 H   0  0  0  0  0  0  0  0  0  0  0  0
    4.6329   -4.2878    3.4631 H   0  0  0  0  0  0  0  0  0  0  0  0
  1  2  1  0  0  0  0
  1  3  2  0  0  0  0
  1 11  1  0  0  0  0
  2  4  2  0  0  0  0
  2 12  1  0  0  0  0
  3  5  1  0  0  0  0
  3 13  1  0  0  0  0
  4  6  1  0  0  0  0
  4 14  1  0  0  0  0
  5  6  2  0  0  0  0
  5  7  1  0  0  0  0
  6  8  1  0  0  0  0
  7  9  1  0  0  0  0
  7 10  2  0  0  0  0
  8 15  1  0  0  0  0
  8 16  1  0  0  0  0
  8 17  1  0  0  0  0
  9 18  1  0  0  0  0
  9 19  1  0  0  0  0
  9 20  1  0  0  0  0
M  END
$$$$
