11   
torsion grid (-165,)
C        0.6723821134   -0.2021210979    0.1112512213
C       -1.5385397099    0.4328045992   -0.6085528478
N        1.3353293965   -0.6523701984    1.2834316035
O       -0.6977633645    0.2745442099    0.4346540927
F       -1.0306298044    1.2938776259   -1.5615732128
F       -1.7652812680   -0.7548019781   -1.2792014601
H        1.2099190366    0.6379381103   -0.3314114148
H        0.5844027959   -1.0150511414   -0.6110028843
H       -2.4956780298    0.8215151486   -0.2594461561
H        0.8423102536   -1.4304027759    1.7144896395
H        1.4284033963    0.0915094087    1.9705569630
11   
torsion grid (-150,)
C        0.7063331883   -0.1135319215    0.1122183935
C       -1.5354182904    0.4171103464   -0.5985143393
N        1.2988334799   -0.7005851264    1.2622687883
O       -0.6487566178    0.4174902810    0.4172256041
F       -1.0699232683    1.1112569140   -1.6980152699
F       -1.7937373273   -0.8607474615   -1.0626062818
H        1.3026425924    0.7327224660   -0.2322048893
H        0.6118000693   -0.8534355788   -0.6831549575
H       -2.4755529295    0.8633209788   -0.2730095389
H        0.7516658840   -1.4883607929    1.6004537188
H        1.3969680351   -0.0277981941    2.0185343158
11   
torsion grid (-135,)
C        0.7425117542   -0.0359748416    0.1078471887
C       -1.5265376650    0.4027762885   -0.5811786100
N        1.2500165733   -0.7417277775    1.2325753001
O       -0.5943071215    0.5576544989    0.3790316975
F       -1.1206099393    0.9225853990   -1.7943355338
F       -1.7930344876   -0.9326370626   -0.8348086279
H        1.3939520343    0.8040517780   -0.1364972400
H        0.6583956014   -0.7030714429   -0.7497761985
H       -2.4549099927    0.8902210160   -0.2824881077
H        0.6534141700   -1.5285957778    1.4765725795
H        1.3359638885   -0.1378401669    2.0462530961
11   
torsion grid (-120,)
C        0.7799274986    0.0320520289    0.0985480136
C       -1.5112486451    0.3887765035   -0.5571768351
N        1.1894042377   -0.7746487028    1.1960379910
O       -0.5360239629    0.6889534464    0.3215952327
F       -1.1759815804    0.7306253897   -1.8519368004
F       -1.7656998783   -0.9737768097   -0.6021264390
H        1.4791636247    0.8565120801   -0.0439124574
H        0.7228556839   -0.5651016020   -0.8108376214
H       -2.4326015488    0.9041750750   -0.2851649455
H        0.5526290500   -1.5544390679    1.3414896143
H        1.2424303361   -0.2356864302    2.0566797912
11   
torsion grid (-105,)
C        0.8169916053    0.0938876073    0.0869338940
C       -1.4920509431    0.3732501652   -0.5274286002
N        1.1215903676   -0.8015731372    1.1501807563
O       -0.4795814144    0.8035730809    0.2493821115
F       -1.2248728074    0.5254918602   -1.8726591416
F       -1.7289220045   -0.9845527219   -0.3636226939
H        1.5487856448    0.9008295100    0.0527623602
H        0.8075444619   -0.4347383389   -0.8659228702
H       -2.4068512181    0.9157762934   -0.2880709182
H        0.4544721759   -1.5681039929    1.1925630761
H        1.1277489477   -0.3263984151    2.0490775700
11   
torsion grid (-90,)
C        0.8548467879    0.1525545484    0.0779674871
C       -1.4765136647    0.3562033753   -0.4941337476
N        1.0601575582   -0.8248943246    1.0923225493
O       -0.4318058870    0.8920516432    0.1666176510
F       -1.2594750727    0.2932266358   -1.8550698269
F       -1.7221405535   -0.9570087197   -0.1145831645
H        1.5953785807    0.9472628879    0.1615033576
H        0.9164289043   -0.3059897218   -0.9094065588
H       -2.3773650292    0.9419737541   -0.3099150392
H        0.3835654183   -1.5804980551    1.0258045312
H        1.0017777734   -0.4174401127    2.0220883048
11   
torsion grid (-75,)
C        0.8892329726    0.2188709425    0.0759600585
C       -1.4735835580    0.3408367786   -0.4515750655
N        1.0273052768   -0.8545500814    1.0002590377
O       -0.4051276762    0.9514517154    0.0979678082
F       -1.2427361312   -0.0489222504   -1.7554447182
F       -1.8216857683   -0.8287337622    0.2102399927
H        1.5995877379    1.0121045342    0.3053007291
H        1.0483540599   -0.1383960676   -0.9420744641
H       -2.3341753767    1.0102321250   -0.4324698408
H        0.3866799106   -1.6165152846    0.7975531857
H        0.8710033683   -0.5489367386    1.9574788207
11   
torsion grid (-60,)
C        0.9146442349    0.2812852779    0.0753050245
C       -1.4664115745    0.3275805491   -0.3977737920
N        0.9944408044   -0.8827293170    0.8888333701
O       -0.3856281417    1.0034655872    0.0404819061
F       -1.2003652699   -0.4058176261   -1.5379029545
F       -1.9233100202   -0.6007881273    0.5255130883
H        1.5826608691    1.0564342780    0.4487772212
H        1.1713786590    0.0322838487   -0.9549827799
H       -2.2816525320    1.0208451690   -0.6080089593
H        0.4193321243   -1.6412446677    0.5334648016
H        0.7197656623   -0.6938730610    1.8494886178
11   
torsion grid (-45,)
C        0.9356196275    0.3178528132    0.0789300258
C       -1.4586729196    0.3151384239   -0.3652247049
N        0.9566875042   -0.8962610200    0.8147393157
O       -0.3659602708    1.0365853771   -0.0571389130
F       -1.2102826455   -0.6147524381   -1.3614891758
F       -1.9292778446   -0.4265501343    0.7071658038
H        1.5522489997    1.0747666319    0.5621816103
H        1.2914403559    0.1377578937   -0.9366366899
H       -2.2634018757    0.9731218456   -0.6951882810
H        0.4356524450   -1.6377096536    0.3559309186
H        0.6008014395   -0.7825078285    1.7599256342
11   
torsion grid (-30,)
C        0.9544869896    0.3356993156    0.0849101621
C       -1.4572140135    0.3095527616   -0.3499465501
N        0.9342282084   -0.9066521025    0.7680166789
O       -0.3434078347    1.0381170049   -0.1811377356
F       -1.2727382796   -0.7433019362   -1.2361211212
F       -1.8963560448   -0.2847032784    0.8241780179
H        1.4997772841    1.0843859998    0.6585030227
H        1.4147528030    0.2073929175   -0.8961101142
H       -2.2632062965    0.9395761103   -0.7277152890
H        0.4748267497   -1.6383169108    0.2343426762
H        0.4997052500   -0.8443079708    1.6842757963
11   
torsion grid (-15,)
C        0.9662198992    0.3471104573    0.0904116286
C       -1.4604061147    0.3054095836   -0.3408813491
N        0.9295862383   -0.9169933202    0.7284601722
O       -0.3236103686    1.0121000800   -0.3077920363
F       -1.3550395429   -0.8439682013   -1.1157616523
F       -1.8564145677   -0.1445342668    0.9116004864
H        1.4214044372    1.0924296445    0.7422236850
H        1.5255462577    0.2750978557   -0.8433167466
H       -2.2666683049    0.9166064316   -0.7477046351
H        0.5406861047   -1.6450656272    0.1370760511
H        0.4235507774   -0.9007507263    1.6088799401
11   
torsion grid (0,)
C        0.9701465438    0.3514990280    0.0968281493
C       -1.4620530368    0.3068908708   -0.3356157135
N        0.9318489028   -0.9313235024    0.6953623538
O       -0.3009319795    0.9650009069   -0.4298361224
F       -1.4435713647   -0.9198260282   -0.9885504771
F       -1.8090962157    0.0068368633    0.9764001367
H        1.3231725287    1.0923909181    0.8145824106
H        1.6201577014    0.3396446006   -0.7783955953
H       -2.2641171743    0.9061821217   -0.7675897729
H        0.6296788638   -1.6576136308    0.0532277707
H        0.3496200461   -0.9622402371    1.5267824041
11   
torsion grid (15,)
C        0.9639917497    0.3528484922    0.1026013829
C       -1.4621236856    0.3098481456   -0.3312503697
N        0.9417089429   -0.9477264001    0.6632909649
O       -0.2795218281    0.9007179914   -0.5437924329
F       -1.5279397029   -0.9758078403   -0.8514597913
F       -1.7533145963    0.1632132111    1.0202131137
H        1.2051169436    1.0852291098    0.8741986046
H        1.6917295423    0.4090421718   -0.7065876029
H       -2.2588198176    0.8973788970   -0.7886356411
H        0.7269017880   -1.6685913247   -0.0190935881
H        0.2971254796   -1.0287105427    1.4437109038
11   
torsion grid (30,)
C        0.5164961860   -0.9954367683    0.0182251082
C       -1.3966855086    0.4935141074   -0.3407273203
N        1.2159381065   -0.0504891309    0.8109021678
O       -0.9366415245   -0.7648289234   -0.2714538264
F       -1.4330026334    1.1235068749    0.8947259010
F       -0.5981161476    1.3070134625   -1.1334098070
H        0.9921667522   -1.0769164758   -0.9604507526
H        0.4949142752   -1.9695861795    0.5055126452
H       -2.4076047922    0.5007296421   -0.7496922225
H        0.8019929641    0.0743866597    1.7302950259
H        1.2953971378    0.8555486424    0.3592686247
11   
torsion grid (45,)
C        0.5120572878   -0.9694325346    0.0144416724
C       -1.4007158194    0.4912849003   -0.3563969416
N        1.2264766530   -0.0763277956    0.8558098516
O       -0.9575699980   -0.7614262161   -0.1472077749
F       -1.3719982352    1.2671205058    0.7920135948
F       -0.6202732997    1.1784101160   -1.2716598026
H        0.9353496977   -0.9444593872   -0.9908534084
H        0.5457147109   -1.9842838749    0.4089367376
H       -2.4286014463    0.4710566927   -0.7203321098
H        0.8445239991   -0.0418045315    1.7970283015
H        1.2598912658    0.8673040361    0.4814154234
11   
torsion grid (60,)
C        0.5169425722   -0.9274049059    0.0147538975
C       -1.4133512946    0.4888450187   -0.3896914725
N        1.2466551280   -0.1162104059    0.9272280458
O       -0.9566792047   -0.7320653972   -0.0464569034
F       -1.2585771581    1.4194553312    0.6267202652
F       -0.7308360286    1.0211849894   -1.4664157836
H        0.9017240545   -0.7872380405   -0.9960397785
H        0.5844244530   -1.9773965459    0.2967956751
H       -2.4741548378    0.4358009814   -0.6373095949
H        0.8851289617   -0.1913186689    1.8746610321
H        1.2435781700    0.8637895546    0.6589501611
11   
torsion grid (75,)
C        0.5334422961   -0.8624436388    0.0217897403
C       -1.4253822082    0.4873345454   -0.4442323983
N        1.2531119059   -0.1682899159    1.0346330128
O       -0.9432682834   -0.6840586289    0.0160395571
F       -1.0323624531    1.5701668525    0.3304155179
F       -0.9699317011    0.7801977349   -1.7139074825
H        0.9034162364   -0.5788800625   -0.9641436059
H        0.6285722446   -1.9389953308    0.1574634830
H       -2.5153606948    0.4595807146   -0.4600476971
H        0.9178140665   -0.4066871651    1.9646016298
H        1.1948034068    0.8395168054    0.9205837867
11   
torsion grid (90,)
C        0.5449883336   -0.7891634485    0.0307902063
C       -1.4355820116    0.4806075115   -0.4878978547
N        1.2592587438   -0.2197978404    1.1226306704
O       -0.9315919988   -0.6268928523    0.0905286660
F       -0.8665869810    1.6431805696    0.0156752417
F       -1.1831553229    0.5251942864   -1.8434463429
H        0.8955282833   -0.3695018179   -0.9125912662
H        0.6678658716   -1.8716225833    0.0202892015
H       -2.5133287953    0.5287579852   -0.3306079134
H        0.9432743076   -0.5952605112    2.0131772020
H        1.1641843853    0.7919406118    1.1446477332
11   
torsion grid (105,)
C        0.5490031306   -0.7205795093    0.0461312213
C       -1.4572016870    0.4791688045   -0.5221186613
N        1.2931826806   -0.2800817042    1.1763005232
O       -0.9200920025   -0.5352225885    0.1823176734
F       -0.8483378697    1.6917113135   -0.2295531981
F       -1.2923802367    0.3203417418   -1.8829326822
H        0.8828549788   -0.2058468158   -0.8544595622
H        0.6610915777   -1.7970385092   -0.0823894404
H       -2.5221947387    0.5652288833   -0.3056245308
H        0.9899514067   -0.7452087308    2.0280939512
H        1.2089775760    0.7249690256    1.3074302499
11   
torsion grid (120,)
C        0.5554536484   -0.6501664548    0.0643703364
C       -1.4809729393    0.4807960954   -0.5525631360
N        1.3304652603   -0.3459481281    1.2175094206
O       -0.8997692137   -0.4165385647    0.2662179462
F       -0.8772531826    1.7263862084   -0.4668599377
F       -1.3751647316    0.1252885315   -1.8822574364
H        0.8902734580   -0.0562802814   -0.7853513146
H        0.6341658369   -1.7115934664   -0.1725636468
H       -2.5361387497    0.5895096426   -0.3009209418
H        1.0283100876   -0.8864559866    2.0240761656
H        1.2754853415    0.6424443151    1.4515380884
11   
torsion grid (135,)
C        0.5653574462   -0.5743797867    0.0808737903
C       -1.5008633820    0.4808113588   -0.5772653238
N        1.3586740443   -0.4115077881    1.2491130668
O       -0.8706082844   -0.2820788647    0.3369676425
F       -0.9167270458    1.7306335068   -0.7013897174
F       -1.4460211690   -0.0663846715   -1.8438739247
H        0.9183057801    0.0868523923   -0.7102081681
H        0.5993919619   -1.6107623830   -0.2574692794
H       -2.5459109908    0.6136555172   -0.2963356715
H        1.0459519100   -1.0192592316    2.0020949719
H        1.3373045450    0.5498618613    1.5806881575
11   
torsion grid (150,)
C        0.5820497657   -0.4912522895    0.0932944937
C       -1.5159904957    0.4761611407   -0.5955520742
N        1.3727191257   -0.4760440390    1.2735125321
O       -0.8325377826   -0.1410576346    0.3892474262
F       -0.9531238776    1.6940462947   -0.9346210743
F       -1.5198504262   -0.2561417111   -1.7665110307
H        0.9678986771    0.2288217907   -0.6289426646
H        0.5709803801   -1.4909317240   -0.3436005462
H       -2.5468745289    0.6465646520   -0.2838611738
H        1.0306928162   -1.1409940269    1.9627655145
H        1.3888911619    0.4482694580    1.6974641411
11   
torsion grid (165,)
C        0.6072298689   -0.4001310857    0.1013297048
C       -1.5275035855    0.4663519221   -0.6068680792
N        1.3729079579   -0.5381728484    1.2891477509
O       -0.7878210226    0.0008390768    0.4209448468
F       -0.9865535694    1.6119093604   -1.1606386390
F       -1.6004586612   -0.4379244111   -1.6483232403
H        1.0394491087    0.3679263047   -0.5417262871
H        0.5554307112   -1.3511705898   -0.4310577110
H       -2.5387113255    0.6907322531   -0.2659905219
H        0.9867413198   -1.2508019363    1.9033106115
H        1.4241440133    0.3378838652    1.8030671084
11   
torsion grid (180,)
C        0.6391817337   -0.3009834621    0.1076279129
C       -1.5349160773    0.4504953812   -0.6127396757
N        1.3587877589   -0.5971620914    1.2952449853
O       -0.7425103474    0.1374131201    0.4337608440
F       -1.0067931272    1.4717232072   -1.3792886997
F       -1.6919652784   -0.6108494053   -1.4835250766
H        1.1232364648    0.5101688375   -0.4386001193
H        0.5644098556   -1.1880212821   -0.5234200661
H       -2.5187667291    0.7563164498   -0.2556044750
H        0.9196629410   -1.3491189308    1.8204960531
H        1.4345276210    0.2174600869    1.8992438612
