13   
torsion grid (-165,)
C       -0.1217742492    0.8898898830    2.6266983852
C        2.2857797083    0.9815671096    2.3607463282
C        3.4599887279    1.4250640476    1.4878280526
N        0.9936622802    1.1902860212    1.7304210316
Cl       3.6136112906    3.2230010109    1.4469606968
Cl       3.3151727059    0.7860409721   -0.2000204766
H       -0.1320896223    1.6091429707    3.4529936931
H       -0.0912839314   -0.1253873230    3.0610791451
H       -1.0614887226    1.0014322951    2.0785287661
H        2.4737843009   -0.0653697847    2.6640901157
H        2.3021220183    1.6139781952    3.2546041672
H        4.4038143578    1.0473497425    1.8755463577
H        0.9259379109    0.6207300861    0.8908939333
13   
torsion grid (-150,)
C       -0.1252393915    0.8700162201    2.6143706941
C        2.2798910349    1.0096994666    2.3633675493
C        3.4652034359    1.4194969340    1.4719123072
N        0.9894958775    1.1182051211    1.7006772083
Cl       3.7987339099    3.1954722070    1.6038221679
Cl       3.2145453676    0.9942639918   -0.2642668869
H       -0.1647189431    1.6637724160    3.3683951114
H       -0.0688452831   -0.0978975300    3.1439180327
H       -1.0623671991    0.9001860364    2.0514025654
H        2.4923041485    0.0017648166    2.7650149521
H        2.2425695368    1.7244335661    3.1900383561
H        4.3830106501    0.9239138610    1.7797382045
H        0.9451355817    0.4701345282    0.9187030265
13   
torsion grid (-135,)
C       -0.1367045238    0.8356866317    2.6064506257
C        2.2583019488    1.0726144300    2.3635824852
C        3.4621073629    1.4182625699    1.4515475943
N        0.9739011680    1.0568758478    1.6803283548
Cl       4.0509932420    3.1062234064    1.7610048814
Cl       3.1221284466    1.2236594128   -0.3077739533
H       -0.2196665192    1.6896295227    3.2876582797
H       -0.0396524232   -0.0781228550    3.2196644957
H       -1.0686680221    0.7719473637    2.0377738868
H        2.4970030040    0.1218195626    2.8747827260
H        2.1811445988    1.8590083686    3.1178678133
H        4.3146223698    0.7777202584    1.6621076669
H        0.9682955938    0.3401850256    0.9591583915
13   
torsion grid (-120,)
C       -0.0266152430    1.1436216719    2.1749831346
C        2.3425017109    0.5942301349    2.4544032543
C        3.2513961097    1.4856455406    1.5440080242
N        1.0683687513    0.2192530836    1.8739992869
Cl       3.9035937398    2.8898561590    2.4872306673
Cl       2.4700121616    2.0474848813    0.0278113264
H        0.1754304688    2.1142087406    1.7151294612
H       -0.1819137046    1.3018164209    3.2561234773
H       -0.9529112005    0.7572215208    1.7398806775
H        2.9185233395   -0.3177805356    2.6409390784
H        2.2423454514    1.1049269483    3.4230685842
H        4.1321597126    0.9390356078    1.2168422239
H        0.8251790668   -0.7206000130    2.1686266050
13   
torsion grid (-105,)
C       -0.0817842162    1.0771758423    2.1472373838
C        2.3202668804    0.7008004667    2.4813349664
C        3.2512446645    1.4926290129    1.5185335285
N        1.0856115038    0.2318566242    1.8855519716
Cl       4.2376304353    2.6804969747    2.4561814220
Cl       2.4035955321    2.2766214342    0.1379183240
H        0.0583924933    2.0544043549    1.6798262238
H       -0.2757388455    1.2341604795    3.2220307962
H       -0.9652847078    0.6165117129    1.6955472903
H        2.9158895081   -0.1684731432    2.7829719828
H        2.1917464367    1.2883586877    3.4022100061
H        3.9719812317    0.8304300393    1.0449244228
H        0.9009314037   -0.7195306147    2.1843184556
13   
torsion grid (-90,)
C       -0.0991002493    1.0296215175    2.1131253032
C        2.3167932395    0.7762240892    2.5071957985
C        3.2591967798    1.4908862524    1.5159246320
N        1.1161690324    0.2399034199    1.8941431530
Cl       4.4810490630    2.4519099777    2.4321234279
Cl       2.4031948867    2.4946137531    0.2887465559
H       -0.0003654974    2.0029598314    1.6283735722
H       -0.3252035107    1.1968549307    3.1798442810
H       -0.9466623638    0.5128502947    1.6532913258
H        2.9187504200   -0.0522841160    2.9002297892
H        2.1468797976    1.4315030018    3.3743264682
H        3.8225543828    0.7692510153    0.9284707594
H        0.9687483420   -0.7128953727    2.2086544000
13   
torsion grid (-75,)
C       -0.1053189705    0.9892822275    2.0824986588
C        2.3162179656    0.8245811865    2.5305748212
C        3.2561494493    1.4804400032    1.5107349011
N        1.1401639063    0.2350417683    1.9102746123
Cl       4.6519023341    2.2312058743    2.3772011571
Cl       2.4236339279    2.6790691170    0.4531628678
H       -0.0337480385    1.9476131605    1.5646474330
H       -0.3555138976    1.1856618220    3.1387236980
H       -0.9262298897    0.4257234048    1.6292848947
H        2.9166637050    0.0347345307    2.9975783507
H        2.0996182136    1.5437739691    3.3339283973
H        3.6719944015    0.7403842185    0.8303883508
H        1.0155051174   -0.7119893579    2.2511020854
13   
torsion grid (-60,)
C       -0.1009315146    0.9527247766    2.0514091643
C        2.3188646243    0.8526716750    2.5562859914
C        3.2494833246    1.4654128151    1.5062030169
N        1.1619786547    0.2170236600    1.9361461073
Cl       4.7839879505    2.0080116164    2.2971685756
Cl       2.4749926082    2.8378380921    0.6295493270
H       -0.0382659895    1.8883555842    1.4922755595
H       -0.3765751559    1.1911946978    3.0925430536
H       -0.9017667575    0.3528919939    1.6089658286
H        2.9144679423    0.1008741889    3.0850005533
H        2.0512268521    1.6264955540    3.2894433267
H        3.5215978354    0.7364688258    0.7462628429
H        1.0478262454   -0.7190495185    2.3093411279
13   
torsion grid (-45,)
C       -0.0843984892    0.9147164753    1.9884191847
C        2.3188778484    0.8954260503    2.5877044225
C        3.1949162058    1.5212949287    1.4956449420
N        1.1864683516    0.1830307712    1.9980527606
Cl       4.8553999971    1.8496174310    2.1436778680
Cl       2.4824613677    3.0541777958    0.8594027986
H       -0.0172259724    1.7723530867    1.3159545066
H       -0.3863088891    1.2829525233    2.9835572449
H       -0.8700356833    0.2544796644    1.6095066160
H        2.9467977065    0.1851898195    3.1320022848
H        2.0003469819    1.6851326859    3.2827765776
H        3.3063845594    0.8501476267    0.6476321008
H        1.0644347791   -0.7048253727    2.4734601851
13   
torsion grid (-30,)
C       -0.0143969434    0.8665707738    1.8869584875
C        2.3351300871    0.8693133881    2.6466284743
C        3.1158955487    1.5489742941    1.5069088387
N        1.2155414957    0.0981241131    2.1078194920
Cl       4.8905635529    1.5781244918    1.8698008849
Cl       2.5418999438    3.2376524991    1.2090806918
H        0.1243553534    1.5700773310    1.0622651314
H       -0.3366463805    1.4431598497    2.7705827536
H       -0.8168809014    0.1787575065    1.6056528300
H        3.0130056233    0.1797620912    3.1530176476
H        2.0101478995    1.6401689693    3.3618795640
H        2.9942613357    1.0010122924    0.5757632685
H        1.0218114492   -0.6769238216    2.7348709279
13   
torsion grid (-15,)
C        0.0274523220    0.8070269867    1.8384872838
C        2.3228622195    0.9147342292    2.6960056876
C        3.0678690814    1.5946749324    1.5249378164
N        1.2509457425    0.0709963249    2.1711375932
Cl       4.8565493118    1.3426362990    1.6368095565
Cl       2.7097797841    3.3658118111    1.4326016266
H        0.2167292999    1.4857373423    1.0012748490
H       -0.3649430788    1.4110283153    2.6743321872
H       -0.7440484162    0.0994378537    1.5221212654
H        3.0262183898    0.2824037478    3.2395379046
H        1.9509477971    1.6933447013    3.3788901454
H        2.7610712854    1.1612710177    0.5764830077
H        1.0395831620   -0.6560606608    2.8486414089
13   
torsion grid (0,)
C        0.0289814536    0.7333816535    1.8225917370
C        2.2956977064    0.9998969297    2.7019927562
C        3.0611792390    1.6425915743    1.5208009576
N        1.2881532029    0.0798239428    2.1876496737
Cl       4.7720332235    1.0697933175    1.4325298173
Cl       3.0041695810    3.4508709252    1.5777366525
H        0.1978225602    1.4271713000    0.9923121692
H       -0.4261138371    1.3070622287    2.6478833492
H       -0.6857381782   -0.0202438647    1.4803162869
H        3.0042086660    0.4416059709    3.3163829395
H        1.8761954147    1.8001737107    3.3300449721
H        2.6079799003    1.3543631993    0.5761904838
H        1.1152904606   -0.6531048198    2.8689722597
13   
torsion grid (15,)
C        0.2332614945   -0.6830984782    2.6889671862
C        2.4251321926    0.2615452226    2.2366359733
C        3.1462264730    1.4428703898    1.5696623925
N        0.9956541562    0.3301363790    1.9532558829
Cl       3.8990019051    0.9655599011   -0.0014533376
Cl       4.3494587406    2.2172538948    2.6702106058
H        0.2913147322   -0.4697854459    3.7614253290
H        0.5861478368   -1.7159112041    2.5269193656
H       -0.8181033007   -0.6256783058    2.3934147552
H        2.8977352901   -0.6762436278    1.9008485056
H        2.5961922609    0.3032453129    3.3153043970
H        2.4284143137    2.2249646736    1.3329986749
H        0.8540477051    0.1862874336    0.9542019854
13   
torsion grid (30,)
C        0.2849256265   -0.6936236383    2.6472845693
C        2.4126499658    0.3973428743    2.2261113000
C        3.0745146423    1.5709632477    1.5043447264
N        0.9983916957    0.3325322394    1.8812644402
Cl       3.5558689815    1.1125674047   -0.1756632698
Cl       4.4675999395    2.2289818377    2.4405535860
H        0.2791414815   -0.4159887508    3.7065178222
H        0.7234101345   -1.7024991125    2.5614899995
H       -0.7538090475   -0.7371039760    2.3080360234
H        2.9738295496   -0.5221159549    1.9854517706
H        2.5362684558    0.5391063534    3.3037236077
H        2.3694409003    2.3929412951    1.4004084642
H        0.9149901922    0.1210704752    0.8879289798
13   
torsion grid (45,)
C        0.2980656576   -0.7033352731    2.6026582561
C        2.4286183115    0.4035790108    2.2391859724
C        3.1044911924    1.5637683056    1.5191695572
N        1.0348180165    0.2996726788    1.8288391238
Cl       3.3660824535    1.1700646677   -0.2272215399
Cl       4.6553426157    1.9999259420    2.3247696281
H        0.2315867756   -0.3807044739    3.6470664401
H        0.7556045193   -1.7073156147    2.5846688556
H       -0.7206681975   -0.7800449022    2.2124035888
H        3.0214039249   -0.5115873763    2.0683350508
H        2.4780855961    0.6073486867    3.3139150263
H        2.4778240979    2.4528362071    1.5370289124
H        1.0016704301    0.0509529020    0.8418005759
13   
torsion grid (60,)
C        0.2982926746   -0.7166190446    2.5840426115
C        2.4223041849    0.4171452994    2.2639119681
C        3.1036832923    1.5724569192    1.5419290775
N        1.0520280130    0.2596463655    1.7937384978
Cl       3.1853909048    1.2618180216   -0.2418371340
Cl       4.7619685058    1.8169490516    2.2014776458
H        0.1717602015   -0.3415347397    3.6052805543
H        0.7764056658   -1.7095299673    2.6433407915
H       -0.6976458614   -0.8377984245    2.1487699551
H        3.0469168918   -0.4867998214    2.1711096738
H        2.3794388358    0.6899547257    3.3244802557
H        2.5579421891    2.5055195556    1.6617403808
H        1.0662325634   -0.0323136455    0.8189284626
13   
torsion grid (75,)
C        0.2994796191   -0.7410441237    2.5700463928
C        2.4084813459    0.4357085026    2.3228845878
C        3.1150795733    1.5799755801    1.5967358077
N        1.0745394021    0.2139548820    1.7755763951
Cl       3.0507246870    1.3675401934   -0.2050585876
Cl       4.8408065279    1.6434356596    2.1141591091
H        0.0948953384   -0.3160251648    3.5587777363
H        0.8007497331   -1.7135839516    2.7162558707
H       -0.6618335079   -0.9180452487    2.0795078762
H        3.0560832889   -0.4548949389    2.3312512076
H        2.2505679921    0.7806189801    3.3515432990
H        2.6636963655    2.5477967295    1.8002733654
H        1.1528726738   -0.1215474862    0.8186460778
13   
torsion grid (90,)
C        0.3049380291   -0.7597830719    2.5494620185
C        2.3841091475    0.4690967005    2.3427082805
C        3.1270958119    1.5931800650    1.5973435836
N        1.0906555046    0.1708739779    1.7373399072
Cl       2.8693534737    1.5334710899   -0.1970536075
Cl       4.8985349090    1.4515019580    1.9176445638
H        0.0332270053   -0.2816665564    3.4970795259
H        0.8278354147   -1.7033576125    2.7845183815
H       -0.6219419919   -1.0006343646    2.0212862119
H        3.0452060672   -0.4033567616    2.4537535411
H        2.1367839167    0.8755210390    3.3304420297
H        2.8118098230    2.5864661531    1.9055605218
H        1.2290866913   -0.2182600297    0.8082693307
13   
torsion grid (105,)
C        0.3164172798   -0.7902482855    2.5274128498
C        2.3446321783    0.5175522830    2.3699158580
C        3.1584812806    1.5848344588    1.5892628995
N        1.1127018951    0.1185959844    1.7015070216
Cl       2.6973516022    1.7317069058   -0.1512333805
Cl       4.9248943478    1.2006082048    1.6904884408
H       -0.0392340927   -0.2592480750    3.4174541093
H        0.8628854884   -1.6882272560    2.8657840834
H       -0.5609756071   -1.1126362824    1.9597050397
H        3.0065923871   -0.3261511083    2.6150114059
H        2.0261173723    0.9959071611    3.3033350964
H        3.0378185205    2.5820966681    2.0030823624
H        1.3323198516   -0.3292668720    0.8153043872
13   
torsion grid (120,)
C        0.3351824118   -0.8209959051    2.4996975479
C        2.2908370285    0.5916779027    2.3920473931
C        3.1782032337    1.5774077847    1.5816785147
N        1.1436084213    0.0708619669    1.6675291615
Cl       2.5427666038    1.9769355206   -0.0507633772
Cl       4.8771570282    0.9477244171    1.4493147628
H       -0.1122637494   -0.2472646824    3.3189634510
H        0.8993799937   -1.6602374541    2.9435479023
H       -0.4797457093   -1.2315470902    1.8969642443
H        2.9506898261   -0.1990668569    2.7823551950
H        1.9162885948    1.1396109267    3.2648844241
H        3.2775661400    2.5300594714    2.0946225797
H        1.4602720966   -0.4286630213    0.8394235754
13   
torsion grid (135,)
C       -0.1396382929    0.8613547110    2.6732066696
C        2.2463605253    0.9491845652    2.3050232747
C        3.4370912088    1.4721479815    1.4757412482
N        0.9486789946    1.4493595259    1.8923330547
Cl       3.1331773069    3.0430551364    0.6687460440
Cl       4.0027816684    0.2215983282    0.2797268467
H       -0.0509909922    1.1825439257    3.7169824074
H       -0.1604036405   -0.2427507955    2.6594235718
H       -1.0954342923    1.2312474806    2.2917249879
H        2.3133342621   -0.1518973920    2.2718961992
H        2.4321950309    1.2076792453    3.3549518670
H        4.3017080169    1.6292385547    2.1157821220
H        0.8087588249    1.2483747773    0.9039947629
13   
torsion grid (150,)
C       -0.1420772971    0.8455985866    2.6520730516
C        2.2507599618    0.9848220257    2.3316525779
C        3.4261540737    1.4703239447    1.4801108338
N        0.9484806749    1.3904747285    1.8438765039
Cl       3.2302524479    3.1441796208    0.8745895336
Cl       3.7646823777    0.3069950203    0.1200757121
H       -0.0941844999    1.2724325862    3.6599591602
H       -0.1264225101   -0.2544586084    2.7485042580
H       -1.0982039000    1.1414148653    2.2114386659
H        2.3690747202   -0.1124723616    2.4000212734
H        2.4105753742    1.3442738960    3.3562684441
H        4.3406544171    1.4623693793    2.0691750508
H        0.8446866661    1.0854484538    0.8776878609
13   
torsion grid (165,)
C       -0.1232076262    0.8683123171    2.6363577426
C        2.2776607064    0.9824930585    2.3465251299
C        3.4521149996    1.4418229258    1.4909034242
N        0.9821749754    1.3293207186    1.7971687303
Cl       3.3788169814    3.1855330524    1.0782519136
Cl       3.5899374632    0.4153122930   -0.0045693923
H       -0.0993262820    1.4002827529    3.5937652454
H       -0.1065174669   -0.2152975951    2.8495366391
H       -1.0707630559    1.1095916983    2.1466169818
H        2.4189068937   -0.1050409196    2.4939503712
H        2.3983727753    1.4361477860    3.3381596030
H        4.3892271858    1.2875471468    2.0221475378
H        0.8978327483    0.9260022218    0.8660509894
13   
torsion grid (180,)
C       -0.1275403863    0.8692214912    2.6297492029
C        2.2766362723    0.9791570355    2.3463147184
C        3.4427176326    1.4415533894    1.4816782144
N        0.9804908954    1.2497028163    1.7550245968
Cl       3.4562303367    3.2247110947    1.2541884875
Cl       3.4275025654    0.5926705809   -0.1234955092
H       -0.1232863731    1.5043293803    3.5223739902
H       -0.0989442425   -0.1838252409    2.9621314153
H       -1.0723989384    1.0397718402    2.1062265151
H        2.4525598866   -0.0902027271    2.5709075229
H        2.3451893913    1.5268453044    3.2937304930
H        4.3930816492    1.1797080227    1.9427353478
H        0.9056163101    0.7566409393    0.8682158852
