22   
torsion grid (-165,)
C        0.5603879823   -0.4046819100   -1.4964579955
C       -3.7389137077    0.1814128077    0.6590331165
C       -2.3183645840    1.5846267762   -1.2481033367
C        1.2062424647    0.8874292966   -1.0146118295
C        0.6444650042    1.1043285563    0.3962028551
C       -0.5727018293    0.1587724483    0.4360829452
C       -2.1296490367    2.0148213140    1.8357499728
O        0.8173143160   -1.0538418869   -2.4751019837
O       -0.4133335635   -0.7883473540   -0.5988123991
S       -2.3350111813    0.9737428597    0.2818175669
H       -3.9108050110    0.0423680506    1.7215597038
H       -4.0058550672   -0.6093872407   -0.0330781071
H       -1.3545188499    1.8751525205   -1.6475255151
H       -3.2146825239    2.1176983314   -1.5390859917
H        2.2915108754    0.7792329286   -1.0512188572
H        0.9343940543    1.6836835255   -1.7125729118
H        1.3646259448    0.7955147400    1.1596151501
H        0.3834250400    2.1441894727    0.5913262152
H       -0.6788617668   -0.3859642420    1.3782078621
H       -1.4033229561    2.8003479278    1.6285433233
H       -3.1089506746    2.4524906838    2.0315817804
H       -1.8051364438    1.3980220184    2.6789009418
22   
torsion grid (-150,)
C        0.6156526816   -0.2423839677   -1.5587551924
C       -3.7575593183    0.2400356105    0.7853255302
C       -2.4162296504    1.4382282263   -1.3134362932
C        1.2145854894    0.9869823667   -0.8883651083
C        0.6516179180    0.9467720791    0.5357616350
C       -0.6033405259    0.0694646740    0.3754359069
C       -2.0463091515    2.1108652499    1.7018275752
O        0.9214457424   -0.7600541538   -2.5999691879
O       -0.3963131442   -0.7404838628   -0.7630650973
S       -2.3607306531    0.9482550020    0.2520698270
H       -3.8952506333    0.2305857423    1.8613630850
H       -4.1011133431   -0.5963041330    0.1872838562
H       -1.4817953851    1.5493178562   -1.8464409657
H       -3.3130965479    1.9620126037   -1.6159486364
H        2.3027829432    0.9427817796   -0.9488300880
H        0.8869183926    1.8704389692   -1.4446622047
H        1.3473398547    0.4413732056    1.2135657587
H        0.4479721362    1.9327309455    0.9478068516
H       -0.7914995629   -0.5870507016    1.2298270137
H       -1.4020248608    2.9158972293    1.3489065156
H       -3.0220854629    2.5102292001    1.9791750779
H       -1.5887084328    1.5819177032    2.5431766464
22   
torsion grid (-135,)
C        0.6512630667   -0.0027846387   -1.6125761151
C       -3.7403274330    0.3056737210    0.9392836735
C       -2.4927296247    1.3442167646   -1.3251023413
C        1.1968879707    1.1036569243   -0.7207242102
C        0.6632544757    0.7301944716    0.6635690554
C       -0.6123880270   -0.0476273855    0.3131572011
C       -1.9496624299    2.2325046361    1.5128081185
O        0.9808438753   -0.3180860938   -2.7253412158
O       -0.3613231681   -0.6601912963   -0.9372344017
S       -2.3675106160    0.9188488502    0.2510944120
H       -3.8322389003    0.4007146019    2.0163859611
H       -4.1693898445   -0.5466016738    0.4251095631
H       -1.6846849332    1.1198497828   -2.0025340263
H       -3.4555791876    1.7147112220   -1.6471140698
H        2.2835652524    1.1469046652   -0.8004220854
H        0.7887188087    2.0542733041   -1.0800339774
H        1.3553901362    0.0422205389    1.1628032483
H        0.5050667131    1.5764226774    1.3275208922
H       -0.8769807425   -0.8277985215    1.0314099142
H       -1.1966468508    2.8828498057    1.0684703352
H       -2.8752914361    2.7870598049    1.6700762506
H       -1.5979786191    1.7945994629    2.4514463232
22   
torsion grid (-120,)
C        0.7077664124    0.2049319152   -1.6213003747
C       -3.6764363391    0.3363456501    1.0950655423
C       -2.6794658303    1.0785577767   -1.3614923651
C        1.1947217270    1.1604237227   -0.5412192234
C        0.6094841137    0.5587040598    0.7368328271
C       -0.6484642621   -0.1414760891    0.2096358054
C       -1.8623310297    2.3402998407    1.3088453798
O        1.0952971646    0.0716586992   -2.7522370635
O       -0.3240506862   -0.5565816537   -1.1065342796
S       -2.3711509478    0.8825065146    0.2376074097
H       -3.6492023206    0.5057374340    2.1664651896
H       -4.1420951101   -0.5559530896    0.6932085319
H       -1.8668107739    1.0073144615   -2.0677833067
H       -3.6202909806    1.5580476947   -1.5967443303
H        2.2824355900    1.2320172848   -0.5640742434
H        0.7850451609    2.1522524029   -0.7627621203
H        1.2845063947   -0.2083481976    1.1334957451
H        0.4226436342    1.2744578278    1.5344029485
H       -0.9613084849   -1.0182539966    0.7802793955
H       -1.0302043466    2.8436115631    0.8155424925
H       -2.7381693448    2.9899901263    1.3194346256
H       -1.5996612546    2.0353676771    2.3253839193
22   
torsion grid (-105,)
C        1.3194943498    0.6893823681    0.9932920287
C       -3.2066027218    2.4732037842   -0.8654679970
C       -1.7897286279    2.6134286727    1.4786306214
C        0.7734097538   -0.5750493152    0.3469084948
C        0.0816498504   -0.0577143832   -0.9153980740
C       -0.2571369000    1.3920332300   -0.5442435819
C       -2.8124095197   -0.0032644267    0.1993476969
O        2.1248522982    0.8021866594    1.8801648281
O        0.7329528304    1.7854361169    0.3952975145
S       -2.1002219196    1.7367582857    0.1200139153
H       -3.6709459958    1.8447709124   -1.6179515097
H       -3.0009434211    3.5167120391   -1.0727685762
H       -0.8652262323    2.4182870036    2.0027000545
H       -2.6759401628    2.9569356721    1.9982512126
H        1.5852483607   -1.2804387106    0.1657227668
H        0.0812176271   -1.0429782840    1.0545561904
H        0.7895331313   -0.0413441839   -1.7510813664
H       -0.7805811016   -0.6427364510   -1.2325455003
H       -0.2421829622    2.0985100045   -1.3758477115
H       -2.1252483999   -0.6278062843    0.7711539618
H       -3.7494415774    0.1159698282    0.7444347005
H       -2.9994901734   -0.4206709136   -0.7931171638
22   
torsion grid (-90,)
C        1.2324916984    0.4867543732    1.0649515318
C       -3.1958424677    2.3362158253   -0.9628749649
C       -1.8531531550    2.8217821336    1.3709125110
C        0.7472296218   -0.6495055786    0.1774416539
C        0.0739879539    0.0626094806   -0.9971790239
C       -0.2383344209    1.4599733721   -0.4410777017
C       -2.7153982203    0.0073480576    0.4057821673
O        1.9682945013    0.4405413388    2.0162980368
O        0.6886000988    1.6717037821    0.6195551252
S       -2.0946719760    1.7591853548    0.1291328442
H       -3.5981058012    1.6115549796   -1.6631314149
H       -3.0231538818    3.3601833048   -1.2719207087
H       -0.9639434089    2.6691557673    1.9683236954
H       -2.7741130283    3.1640632043    1.8293636142
H        1.5935201688   -1.2777818793   -0.1046043756
H        0.0624738213   -1.2716935445    0.7608121383
H        0.7783784461    0.1711288363   -1.8278220631
H       -0.8055322759   -0.4481706076   -1.3905253653
H       -0.1383067411    2.2781135121   -1.1555471245
H       -2.0034279904   -0.4995248248    1.0582164255
H       -3.6660665057    0.1380254520    0.9240255459
H       -2.8626679511   -0.5400507151   -0.5280800415
22   
torsion grid (-75,)
C        1.1091976953    0.2776823703    1.1004640252
C       -3.1822365760    2.1823492918   -1.0261841421
C       -1.9041509774    2.9965553728    1.2528199587
C        0.6800572570   -0.6975117210    0.0139272334
C        0.0720251573    0.1924878388   -1.0718032573
C       -0.2186869831    1.5153876597   -0.3483390559
C       -2.5811132607    0.0374169173    0.6070922639
O        1.7608692983    0.0638286342    2.0897099956
O        0.6244125970    1.5326778745    0.8034844734
S       -2.0786374629    1.7819310230    0.1390226057
H       -3.5315267138    1.3659825469   -1.6501689793
H       -3.0522438749    3.1744933126   -1.4409811163
H       -1.0374934734    2.9060038333    1.8976864610
H       -2.8495374130    3.3237936208    1.6727337066
H        1.5470122377   -1.2727490169   -0.3154535406
H       -0.0314724139   -1.4048711605    0.4480849165
H        0.8012427078    0.3817564981   -1.8648009307
H       -0.8156006626   -0.2225593934   -1.5538569542
H       -0.0339004577    2.4191958982   -0.9297295411
H       -1.8868810816   -0.3036152489    1.3763648999
H       -3.5807796855    0.1434539188    1.0301487216
H       -2.5982974277   -0.6420784462   -0.2481692386
22   
torsion grid (-60,)
C        1.0118234998    0.0876854192    1.1089246656
C       -3.1581687592    2.0292219816   -1.0745340492
C       -1.9609200264    3.1356296682    1.1362928323
C        0.6443035395   -0.7213416869   -0.1263587792
C        0.0766774713    0.3067476072   -1.1091880942
C       -0.1941356814    1.5426019668   -0.2406530257
C       -2.4888101403    0.0892937566    0.7647622415
O        1.5925605774   -0.2735431005    2.0995124283
O        0.5565761108    1.3803851846    0.9618399988
S       -2.0685590364    1.8070836947    0.1477898703
H       -3.4697547623    1.1367774404   -1.6067319327
H       -3.0745260053    2.9795953892   -1.5869567436
H       -1.1009892798    3.1233103290    1.7991441717
H       -2.9208099365    3.4488654449    1.5344232531
H        1.5323479422   -1.2413586658   -0.4900914784
H       -0.0778549951   -1.4855764795    0.1729021637
H        0.8134126368    0.5624991291   -1.8750250276
H       -0.8229934024   -0.0226825832   -1.6361410387
H        0.0685952958    2.4998982043   -0.6919628186
H       -1.7970175054   -0.1481337817    1.5741793189
H       -3.5046836732    0.1703176383    1.1531491752
H       -2.4448153838   -0.6556649320   -0.0332246260
22   
torsion grid (-45,)
C        0.9283587953   -0.0993683054    1.0873896630
C       -3.1321815361    1.8749592779   -1.0984638259
C       -2.0110005324    3.2475985993    1.0104263293
C        0.6395010238   -0.7267854038   -0.2682075101
C        0.1028523738    0.4202077135   -1.1318003900
C       -0.1683010248    1.5462155801   -0.1266773755
C       -2.4462983037    0.1542033971    0.9209794289
O        1.4375300674   -0.6007546439    2.0560219797
O        0.4894764504    1.2079307549    1.0910993898
S       -2.0652144465    1.8222326325    0.1606875112
H       -3.4346045883    0.9223458702   -1.5186432681
H       -3.0767087244    2.7658387522   -1.7112881694
H       -1.1517611727    3.3253614020    1.6714594054
H       -2.9794352583    3.5652349946    1.3837179785
H        1.5552163627   -1.1808594888   -0.6516883515
H       -0.0806125959   -1.5352109388   -0.1159308386
H        0.8471587303    0.7508349656   -1.8598675704
H       -0.8008600914    0.1682989831   -1.6956763593
H        0.1576794975    2.5388931489   -0.4392013763
H       -1.7843022527    0.0163317798    1.7760823509
H       -3.4836641069    0.2184347204    1.2510418281
H       -2.3305701811   -0.6503321668    0.1905916758
22   
torsion grid (-30,)
C        0.8423801372   -0.2864299999    1.0246039984
C       -3.0973732769    1.6990260965   -1.1012562169
C       -2.0549769383    3.3275729783    0.8644650931
C        0.6251970358   -0.7143189236   -0.4193663073
C        0.1653227751    0.5542126744   -1.1477595466
C       -0.1370139924    1.5391962138   -0.0145973754
C       -2.4343817777    0.2300699531    1.1043922226
O        1.2756670636   -0.9290588723    1.9455181620
O        0.4364830315    1.0229245043    1.1802698864
S       -2.0616228343    1.8136318517    0.1792479409
H       -3.3953500174    0.7012199175   -1.4019721817
H       -3.0511806104    2.5134571864   -1.8129489841
H       -1.2100641746    3.4994391224    1.5266469722
H       -3.0358453616    3.6636564147    1.1855667214
H        1.5535138190   -1.1387013643   -0.8066414405
H       -0.1191994237   -1.5153887714   -0.4235539486
H        0.9548242999    0.9561594998   -1.7867146968
H       -0.7169552764    0.4056627631   -1.7796252070
H        0.2251779060    2.5551661290   -0.1733928641
H       -1.8248874718    0.2168256869    2.0070770075
H       -3.4947522744    0.2806924482    1.3534126702
H       -2.2327041521   -0.6434038842    0.4786805998
22   
torsion grid (-15,)
C        0.7570276545   -0.4571850514    0.9080873585
C       -3.0400352980    1.4723970867   -1.0826469603
C       -2.1029472040    3.3568339499    0.6914108461
C        0.5526820408   -0.6709325809   -0.5847593649
C        0.2685764394    0.7272528983   -1.1442413835
C       -0.0946040625    1.5374147719    0.1002086732
C       -2.4293366942    0.3143417718    1.3167708556
O        1.1335633171   -1.2387710343    1.7424290008
O        0.4123215259    0.8400802557    1.2309607078
S       -2.0468885679    1.7672155549    0.2043436465
H       -3.2949406159    0.4364166316   -1.2743828306
H       -2.9940589913    2.1996005963   -1.8833972319
H       -1.3010645180    3.6364874833    1.3693227946
H       -3.1066257386    3.7059870057    0.9125416499
H        1.4355875288   -1.1557550240   -1.0045400994
H       -0.2871265652   -1.3610502815   -0.7120631063
H        1.1568466734    1.1540174713   -1.6164269868
H       -0.5452309491    0.7472728936   -1.8762708750
H        0.2765644622    2.5613559221    0.1131508546
H       -1.8276091914    0.4136040514    2.2188333534
H       -3.4930883623    0.3967223293    1.5412826464
H       -2.2173543975   -0.6316950776    0.8114389569
22   
torsion grid (0,)
C        0.6627208983   -0.6147060909    0.7562618407
C       -2.9720286414    1.2359384594   -1.0355690291
C       -2.1234043624    3.3473012688    0.4943177998
C        0.5035441283   -0.5919148583   -0.7566189434
C        0.3580823025    0.8926794447   -1.1045577415
C       -0.0665263427    1.5145869120    0.2244856607
C       -2.4459440139    0.4195836153    1.5256383311
O        0.9685702950   -1.5286747556    1.4774307480
O        0.3715831284    0.6390102502    1.2570127486
S       -2.0277496448    1.7050245606    0.2383515702
H       -3.1870667619    0.1765664872   -1.1161212252
H       -2.9087446354    1.8641120125   -1.9151688366
H       -1.3811126956    3.7357939168    1.1852658956
H       -3.1432487523    3.7081278282    0.5824008085
H        1.3565299841   -1.0884439288   -1.2217366841
H       -0.3914413523   -1.1697756206   -1.0083163043
H        1.3113225939    1.3217284397   -1.4239471174
H       -0.3835549137    1.0798178319   -1.8861797924
H        0.3127118986    2.5159794154    0.4187690464
H       -1.8278105396    0.6068133195    2.4023682927
H       -3.5032540058    0.5717231195    1.7437996164
H       -2.2709200810   -0.5896600031    1.1441658206
22   
torsion grid (15,)
C        0.5746355344   -0.7559641954    0.5805792594
C       -2.9253851998    1.0282490280   -0.9625594425
C       -2.1002284107    3.3097690116    0.3004391109
C        0.5235877016   -0.4994110694   -0.9171203103
C        0.4141017774    1.0227933998   -1.0433134459
C       -0.0761023970    1.4529378167    0.3396542104
C       -2.4922798724    0.5531247206    1.7093379310
O        0.8106040545   -1.7774598864    1.1724588026
O        0.2802142097    0.4162057702    1.2490319645
S       -2.0206974088    1.6460377890    0.2762977453
H       -3.1403475475   -0.0332646740   -0.9208107696
H       -2.8288909706    1.5448099366   -1.9090594287
H       -1.4022437006    3.7841993298    0.9835370878
H       -3.1176861404    3.6864406781    0.2682542836
H        1.4067384576   -0.9320309028   -1.3903031169
H       -0.3546607234   -1.0145622630   -1.3166407454
H        1.3872725535    1.4780870502   -1.2438012168
H       -0.2785369723    1.3402722345   -1.8267027184
H        0.3143144931    2.3986506649    0.7109303153
H       -1.8730345282    0.8340962251    2.5606356483
H       -3.5446802876    0.7701096154    1.8943519338
H       -2.3444361366   -0.5014786551    1.4668554070
22   
torsion grid (30,)
C        0.4891782643   -0.8665381658    0.3983786769
C       -2.9002705992    0.8439617385   -0.8740648771
C       -2.0660680639    3.2549336817    0.1277266947
C        0.5641671532   -0.4010700795   -1.0462897621
C        0.4548299662    1.1250929363   -0.9704075658
C       -0.1032819492    1.3728838286    0.4338828343
C       -2.5324631622    0.6950364280    1.8482970206
O        0.6626245468   -1.9660027548    0.8567409299
O        0.1675930302    0.2084597164    1.2057611627
S       -2.0223309798    1.5989849158    0.3054763766
H       -3.1210455218   -0.2043643538   -0.7103400931
H       -2.7718928530    1.2414826851   -1.8728886527
H       -1.3860305629    3.7913212605    0.7835066482
H       -3.0744091948    3.6417246052    0.0181692466
H        1.4915736339   -0.7653332805   -1.4924931197
H       -0.2695176563   -0.8540992792   -1.5885741603
H        1.4333716721    1.6024966390   -1.0627156677
H       -0.1996281790    1.5523771778   -1.7334791826
H        0.2921302986    2.2424830455    0.9583767938
H       -1.9118760301    1.0617714798    2.6664503011
H       -3.5798009150    0.9583805645    1.9990775085
H       -2.4045944118   -0.3823711646    1.7314613927
22   
torsion grid (45,)
C        0.4177967147   -0.9430194017    0.2185678617
C       -2.9057948836    0.6777567916   -0.7763158915
C       -2.0437018333    3.1845439665   -0.0284568731
C        0.5996469778   -0.2977105700   -1.1450158921
C        0.5075295428    1.2097360251   -0.8811872750
C       -0.1329040082    1.2865345161    0.5090050167
C       -2.5575611106    0.8310431912    1.9431675337
O        0.5498330816   -2.0944410863    0.5423808185
O        0.0576508181    0.0269410160    1.1380136665
S       -2.0316400568    1.5565141322    0.3160517674
H       -3.1319670705   -0.3435910094   -0.4932593500
H       -2.7581937440    0.9528307874   -1.8132936156
H       -1.3445932049    3.7655900039    0.5674760604
H       -3.0430127970    3.5830613829   -0.1716348113
H        1.5504190515   -0.6241294016   -1.5710598523
H       -0.2015018187   -0.6595806395   -1.7937399429
H        1.4969145750    1.6729029458   -0.8524885069
H       -0.0926129572    1.7504704609   -1.6159162859
H        0.2504567099    2.0695889997    1.1652257286
H       -1.9383379905    1.2839161190    2.7191538098
H       -3.6034389920    1.1151807918    2.0630992720
H       -2.4327285181   -0.2525273972    1.9422792666
22   
torsion grid (60,)
C        0.3560761601   -0.9906393815    0.0372489103
C       -2.9488836707    0.5302428149   -0.6677505404
C       -2.0301405343    3.0951835679   -0.1906249560
C        0.6295566473   -0.1848973887   -1.2225316286
C        0.5864342859    1.2795402791   -0.7665399521
C       -0.1566189431    1.1981861672    0.5706403288
C       -2.5704577194    0.9602034387    2.0068357330
O        0.4500841970   -2.1752051559    0.2229380733
O       -0.0330551259   -0.1296593080    1.0522755647
S       -2.0467671808    1.5091328338    0.3100780090
H       -3.1909019026   -0.4465583243   -0.2657305457
H       -2.7975744460    0.6746670430   -1.7304553376
H       -1.2863568917    3.7040078316    0.3187692661
H       -3.0220944000    3.5137492429   -0.3269820910
H        1.5845939080   -0.4983364089   -1.6483058777
H       -0.1545944098   -0.4227876751   -1.9453363087
H        1.5925831101    1.6738604151   -0.6003710200
H        0.0693542101    1.9448567259   -1.4602523062
H        0.1904232200    1.8882559062    1.3424038029
H       -1.9844225828    1.5310692028    2.7292497813
H       -3.6296915516    1.2061369184    2.0864122918
H       -2.3952878936   -0.1093971206    2.1300813083
22   
torsion grid (75,)
C        0.3120191532   -1.0173067220   -0.1496029261
C       -3.0167326282    0.4109167084   -0.5501778337
C       -2.0104196990    2.9890512311   -0.3517971389
C        0.6571343677   -0.0641238985   -1.2839799876
C        0.6691475974    1.3247349793   -0.6305758002
C       -0.1764609543    1.0989121279    0.6239937234
C       -2.5800310965    1.0939457466    2.0484611861
O        0.3815117058   -2.2169808600   -0.1092334558
O       -0.1082548571   -0.2787312634    0.9477812863
S       -2.0618581364    1.4591722726    0.2987137077
H       -3.2750184128   -0.5059741752   -0.0329873800
H       -2.8566276545    0.4088294763   -1.6217622303
H       -1.2287377268    3.6148218815    0.0740707957
H       -2.9921603356    3.4304645814   -0.4901148761
H        1.6045412134   -0.3645364611   -1.7344079217
H       -0.1214250540   -0.1573095079   -2.0460147811
H        1.6825791926    1.6156474189   -0.3384605596
H        0.2457036139    2.1067068081   -1.2618621154
H        0.1223268488    1.6810729564    1.4979039673
H       -2.0615982110    1.8040907456    2.6950427065
H       -3.6581394119    1.2512245037    2.0898457676
H       -2.3152410286    0.0669830746    2.3072163717
22   
torsion grid (90,)
C        0.2985299193   -1.0225980112   -0.3476468014
C       -3.0966347172    0.3058155028   -0.4158342155
C       -2.0015302104    2.8598363876   -0.5070410433
C        0.7004419283    0.0646699988   -1.3340126607
C        0.7375548252    1.3472558016   -0.4920975504
C       -0.1954433296    0.9847059940    0.6624326769
C       -2.5870850235    1.2402103289    2.0797007919
O        0.3553609987   -2.2180240109   -0.4579643969
O       -0.1613471641   -0.4209522274    0.8173718180
S       -2.0782755047    1.4014907322    0.2943006485
H       -3.3388367251   -0.5511866473    0.2029237477
H       -2.9370646611    0.1636099019   -1.4789413987
H       -1.2186787759    3.5163589643   -0.1335340371
H       -2.9810046587    3.3000247752   -0.6677046144
H        1.6454255227   -0.2024335472   -1.8090951497
H       -0.0673825055    0.1127037657   -2.1122821073
H        1.7423007743    1.5344646884   -0.0999079637
H        0.3966995924    2.2244514706   -1.0400914023
H        0.0517576491    1.4473522174    1.6193976338
H       -2.0668890937    2.0191277243    2.6399535973
H       -3.6655402249    1.3970795204    2.1117488979
H       -2.3201001295    0.2476482945    2.4503760351
22   
torsion grid (105,)
C        0.3079283953   -1.0030042208   -0.5681081456
C       -3.1829476027    0.2091971105   -0.2621476192
C       -1.9960559040    2.6834094597   -0.6645974692
C        0.7561655201    0.2095045632   -1.3707782589
C        0.7946257271    1.3427869479   -0.3387741557
C       -0.2169896436    0.8472933888    0.6933178161
C       -2.5965925793    1.4154543256    2.1014230078
O        0.3633137965   -2.1713573652   -0.8441633440
O       -0.2015648019   -0.5660869864    0.6488375296
S       -2.1006055115    1.3294934265    0.3073016752
H       -3.4065652669   -0.5842578488    0.4434809767
H       -3.0348153108   -0.0568662379   -1.3036240636
H       -1.2257935635    3.3822385395   -0.3485920188
H       -2.9752630113    3.1075163233   -0.8688133308
H        1.7057127630   -0.0027144649   -1.8636723581
H        0.0033614395    0.4027185593   -2.1418618883
H        1.7800187697    1.4114694608    0.1348839418
H        0.5378274320    2.3102005507   -0.7639337997
H       -0.0226848965    1.1616796615    1.7196763447
H       -2.0057086614    2.2047780853    2.5700700659
H       -3.6575092881    1.6661425938    2.1175401952
H       -2.4135993157    0.4520157520    2.5845874045
22   
torsion grid (120,)
C        0.3303077536   -0.9407232723   -0.7995378175
C       -3.2831780169    0.1275006134   -0.0891157484
C       -2.0000131882    2.4556647224   -0.8126627733
C        0.8244508643    0.3732807443   -1.3837395291
C        0.8257676411    1.3208582779   -0.1807631744
C       -0.2563563555    0.7024492084    0.7058478881
C       -2.5829148270    1.5946976538    2.1082103482
O        0.3966415103   -2.0545125866   -1.2468022511
O       -0.2459412344   -0.6884004446    0.4384235738
S       -2.1343447811    1.2468122407    0.3350263393
H       -3.5118494455   -0.5847819306    0.6978724895
H       -3.1583046785   -0.2563392190   -1.0964092380
H       -1.2148821464    3.1750283781   -0.6011628639
H       -2.9721634724    2.8718176834   -1.0627313006
H        1.7944560010    0.2275894406   -1.8607123509
H        0.1037593785    0.7004290116   -2.1395821358
H        1.7810621174    1.2690256045    0.3542966538
H        0.6397715854    2.3594415682   -0.4442800085
H       -0.1142143498    0.8432277839    1.7784143408
H       -1.8853533427    2.3459535511    2.4846707476
H       -3.6006487969    1.9855293001    2.0969866778
H       -2.5237937303    0.6770632950    2.6998026381
22   
torsion grid (135,)
C        0.3511980543   -0.8438851881   -1.0097565281
C       -3.3876753673    0.0755839774    0.0807620537
C       -2.0130719105    2.2196157080   -0.9316210529
C        0.9033582037    0.5282302372   -1.3581448292
C        0.8177123471    1.2929181482   -0.0348453677
C       -0.3165389079    0.5646970447    0.6944825385
C       -2.5302550990    1.7460956838    2.0892268756
O        0.4295872200   -1.8781142270   -1.6174256016
O       -0.3018223713   -0.7685424595    0.2117641792
S       -2.1700477345    1.1678268235    0.3576105893
H       -3.6326761409   -0.5369789414    0.9437370972
H       -3.2998775313   -0.4197241106   -0.8804945331
H       -1.1911954671    2.9216132651   -0.8388290911
H       -2.9726621866    2.6371050442   -1.2226129932
H        1.9103570989    0.4298896634   -1.7660670157
H        0.2500668209    0.9655901434   -2.1178121833
H        1.7372816629    1.1600009684    0.5467343215
H        0.6507031148    2.3633378773   -0.1468686116
H       -0.2230551381    0.5322867447    1.7817603249
H       -1.7356096492    2.4383091836    2.3773192039
H       -3.4908222396    2.2601873543    2.0481355476
H       -2.5726962932    0.8955686840    2.7749975815
22   
torsion grid (150,)
C        0.3799167337   -0.7415195119   -1.1765071837
C       -3.4897465688    0.0604116413    0.2370617480
C       -2.0504736254    2.0245206434   -1.0238639804
C        0.9854880211    0.6468226599   -1.3008374774
C        0.7759881457    1.2641125770    0.0854851188
C       -0.3886694847    0.4409678531    0.6546348280
C       -2.4377407466    1.8514965397    2.0466089904
O        0.4842873455   -1.6858620187   -1.9128069323
O       -0.3549276057   -0.8129542260   -0.0045509445
S       -2.2046058803    1.1034309987    0.3592564125
H       -3.7243566761   -0.4520990986    1.1659166538
H       -3.4647216807   -0.5299819544   -0.6728700657
H       -1.2026916717    2.7012485282   -1.0231071940
H       -3.0040975590    2.4398513624   -1.3351740044
H        2.0302996985    0.5647520122   -1.6047432008
H        0.4325017974    1.1753110617   -2.0802433323
H        1.6555754310    1.0992662148    0.7172829609
H        0.5798417961    2.3368714516    0.0720862384
H       -0.3395180327    0.2597307811    1.7308012676
H       -1.5804408390    2.5003799840    2.2417172283
H       -3.3570074290    2.4358093006    1.9993949700
H       -2.5126426830    1.0690448242    2.8065104041
22   
torsion grid (165,)
C        0.4262674636   -0.6369962394   -1.3059584996
C       -3.5870749391    0.0749118230    0.3849908013
C       -2.1176127352    1.8577049255   -1.1062660667
C        1.0628025027    0.7417409974   -1.2213103181
C        0.7216520565    1.2319741460    0.1911819892
C       -0.4582359410    0.3314906800    0.5953037084
C       -2.3275762915    1.9197403324    1.9866976341
O        0.5734238774   -1.4874611354   -2.1422058021
O       -0.3863077327   -0.8328965745   -0.2039764296
S       -2.2428136384    1.0473590759    0.3426410889
H       -3.7952101099   -0.3379120649    1.3679845141
H       -3.6540476966   -0.5880174183   -0.4712996408
H       -1.2327328941    2.4765282278   -1.2062439288
H       -3.0631674321    2.2933626793   -1.4123755901
H        2.1330963380    0.6580996494   -1.4176667470
H        0.6190432771    1.3560248114   -2.0071041839
H        1.5548163064    1.0483799664    0.8770506082
H        0.4835973699    2.2959215872    0.2432025034
H       -0.4551273414    0.0241797101    1.6440441041
H       -1.4329586286    2.5389888149    2.0845799650
H       -3.2216567911    2.5429532878    1.9553170609
H       -2.3879185340    1.1955343424    2.8034657347
22   
torsion grid (180,)
C        0.4954895871   -0.5290042323   -1.4111102125
C       -3.6749941744    0.1173430040    0.5317743738
C       -2.2162726828    1.7144639748   -1.1757364678
C        1.1441751879    0.8186313509   -1.1281877533
C        0.6692109616    1.1936415550    0.2819100263
C       -0.5192901518    0.2403699075    0.5153913437
C       -2.2215464154    1.9588053956    1.9234391908
O        0.6983191921   -1.2844804627   -2.3233991473
O       -0.4001390739   -0.8250887849   -0.4028718121
S       -2.2895723059    1.0005241940    0.3167620727
H       -3.8642931618   -0.1706986788    1.5610506196
H       -3.8566215922   -0.6048306838   -0.2566571575
H       -1.2757469406    2.1927570151   -1.4217515974
H       -3.1389461459    2.2028459965   -1.4673922704
H        2.2271773148    0.7193444133   -1.2197574308
H        0.8110137473    1.5178503293   -1.8984256854
H        1.4450041781    0.9877495256    1.0252523686
H        0.3944277155    2.2454664840    0.3759506495
H       -0.5607781680   -0.1827674403    1.5224816613
H       -1.3302775709    2.5881286771    1.9136390745
H       -3.1211709315    2.5746166047    1.9425401200
H       -2.2029100834    1.2759434798    2.7771505393
