20   
torsion grid (-165,)
C        1.8232164791   -0.9910969625   -0.1174769234
C        0.7514232633   -0.4260206786    0.5765027146
C        2.8185755791   -1.6477025029    1.9984048706
C        1.7525572800   -1.0835829131    2.7099659705
C        2.8457395140   -1.5924874130    0.6088485767
C        0.7246684438   -0.4763911381    1.9714307511
C        1.7344566328   -1.1684594701    4.2152747162
C        4.9962403937   -1.4731982842   -0.3478198975
O        0.8392064820   -2.2211145944    4.5926563077
O        3.8995960343   -2.2257125109   -0.0820877131
F        5.5981313926   -1.0132896555    0.7751423087
F        4.7141673571   -0.3901740377   -1.1099203986
F        5.8687635611   -2.2404634625   -1.0099495462
Br      -0.7773374650    0.3206991430    2.8597187341
H        1.8650130024   -0.9664721288   -1.2015318283
H       -0.0580213693    0.0500015009    0.0335372636
H        3.6277779782   -2.1397297885    2.5292184542
H        2.7504598639   -1.3747889656    4.5773612847
H        1.4093394432   -0.2085640996    4.6346301419
H        0.6412747879   -2.1253262412    5.5372992018
20   
torsion grid (-150,)
C        1.8009424727   -1.0149159547   -0.0900607523
C        0.7325619482   -0.4654743143    0.6224376769
C        2.8345051001   -1.6723099886    2.0081251261
C        1.7714755208   -1.1257951853    2.7369262189
C        2.8405826027   -1.6078074966    0.6182373021
C        0.7271613055   -0.5245268960    2.0165890766
C        1.7715743465   -1.2182441096    4.2428341147
C        4.9752189983   -1.4570380549   -0.3688367035
O        0.8405284542   -2.2318792596    4.6408405447
O        3.8918466932   -2.2244715959   -0.0911696957
F        5.5865303231   -0.9938432642    0.7475650250
F        4.6689157826   -0.3747959901   -1.1227018027
F        5.8480637874   -2.2106038823   -1.0460011534
Br      -0.7646994867    0.2594105890    2.9346985287
H        1.8266653094   -0.9842947824   -1.1744504639
H       -0.0892631245    0.0055553771    0.0938311116
H        3.6569095739   -2.1583601558    2.5240751980
H        2.7810719566   -1.4729211039    4.5901393272
H        1.4998087211   -0.2453668204    4.6688418601
H        0.4819770547   -1.9951496529    5.5092363766
20   
torsion grid (-135,)
C        1.8617756382   -0.9866068046   -0.1415071726
C        0.7813388980   -0.4301603138    0.5474781798
C        2.8519328640   -1.6382315379    1.9793784763
C        1.7763482774   -1.0858051187    2.6846258944
C        2.8854413103   -1.5797811405    0.5894095503
C        0.7493106084   -0.4837293824    1.9410650650
C        1.7437669027   -1.1710672603    4.1921738574
C        5.0388009989   -1.4398328148   -0.3579328949
O        0.7836063095   -2.1558198088    4.5944594740
O        3.9482722899   -2.2029822830   -0.0965547192
F        5.6294198992   -0.9711504391    0.7671969991
F        4.7497315175   -0.3616081336   -1.1242727802
F        5.9226126249   -2.1996614147   -1.0134288798
Br      -0.7571169899    0.3103453409    2.8293835298
H        1.9086147491   -0.9612476767   -1.2252971733
H       -0.0282478679    0.0415208253    0.0008473810
H        3.6626413472   -2.1245912999    2.5133821536
H        2.7364140766   -1.4586095785    4.5587596239
H        1.5005780652   -0.1879867861    4.6097858842
H        0.2536536695   -1.7946468369    5.3194142569
20   
torsion grid (-120,)
C        1.8506456773   -0.9966160221   -0.1244119000
C        0.7737292712   -0.4450034405    0.5740090563
C        2.8626913590   -1.6449351133    1.9882095156
C        1.7913626901   -1.0974292840    2.7036465667
C        2.8828313302   -1.5858910855    0.5978665023
C        0.7567379546   -0.5004729731    1.9674605168
C        1.7691098965   -1.1850199691    4.2132968555
C        5.0264120572   -1.4361293889   -0.3700377897
O        0.8235222976   -2.1720494901    4.6428447213
O        3.9418911873   -2.2043156456   -0.0978272567
F        5.6251974186   -0.9639414590    0.7491588671
F        4.7247697035   -0.3598567786   -1.1342788039
F        5.9073907655   -2.1922300693   -1.0333966234
Br      -0.7481093432    0.2814262784    2.8729155650
H        1.8880925043   -0.9710042559   -1.2085372814
H       -0.0431520002    0.0230792690    0.0351168294
H        3.6808996791   -2.1274229614    2.5143257509
H        2.7616061952   -1.4818051308    4.5688580842
H        1.5394910343   -0.2028561618    4.6391295100
H        0.1560622594   -1.7429782008    5.1967447243
20   
torsion grid (-105,)
C        1.8579284086   -0.9961545476   -0.1248142894
C        0.7799651933   -0.4440907581    0.5716054494
C        2.8693254834   -1.6393291359    1.9900397610
C        1.7972999150   -1.0907611946    2.7038523918
C        2.8901743170   -1.5831163025    0.5995788498
C        0.7635253783   -0.4966259448    1.9649997736
C        1.7725620891   -1.1750082325    4.2156782770
C        5.0334741081   -1.4328623913   -0.3690160920
O        0.8313434535   -2.1530890491    4.6692984949
O        3.9500726022   -2.2020045072   -0.0940515133
F        5.6309327197   -0.9554095300    0.7485005168
F        4.7298253332   -0.3601266579   -1.1373888881
F        5.9157196755   -2.1899462758   -1.0293153934
Br      -0.7449943759    0.2833539784    2.8706952274
H        1.8960339532   -0.9731126126   -1.2089482965
H       -0.0374704995    0.0214073026    0.0313059814
H        3.6879343365   -2.1199137118    2.5173511151
H        2.7589175535   -1.4883314188    4.5698367266
H        1.5608251777   -0.1893799254    4.6433422212
H        0.0529606744   -1.6931407450    5.0163292594
20   
torsion grid (-90,)
C        1.8622953464   -0.9946163122   -0.1236631631
C        0.7838363851   -0.4405484118    0.5700940353
C        2.8718553472   -1.6326818933    1.9940819765
C        1.8000340381   -1.0804180515    2.7059409026
C        2.8936363738   -1.5801799247    0.6035760051
C        0.7676741929   -0.4889388274    1.9636343995
C        1.7745326359   -1.1583703956    4.2196983262
C        5.0368330633   -1.4331988918   -0.3659060350
O        0.8376443329   -2.1264222300    4.6964303161
O        3.9534977752   -2.2015855025   -0.0873577465
F        5.6337851381   -0.9504968586    0.7494339402
F        4.7324618018   -0.3642098089   -1.1391483436
F        5.9191175638   -2.1930053033   -1.0227186160
Br      -0.7450526963    0.2891634617    2.8678644329
H        1.9013812999   -0.9748247413   -1.2078051704
H       -0.0337960090    0.0225801427    0.0280680310
H        3.6900348661   -2.1122020128    2.5230292806
H        2.7556364385   -1.4821190702    4.5752322143
H        1.5741206178   -0.1679848326    4.6440412983
H       -0.0169029787   -1.6843952877    4.8193456992
20   
torsion grid (-75,)
C        1.8812527163   -0.9808969569   -0.1380092835
C        0.8004879277   -0.4190231219    0.5451776635
C        2.8710670447   -1.6135198197    1.9916693192
C        1.7978330245   -1.0510543025    2.6942156642
C        2.9034684500   -1.5678997231    0.6012831225
C        0.7747749573   -0.4600285386    1.9390011280
C        1.7645882576   -1.1171046211    4.2093068360
C        5.0530684306   -1.4354847147   -0.3558935037
O        0.8230910712   -2.0694551308    4.7039494283
O        3.9654075435   -2.1983094975   -0.0775468634
F        5.6436671307   -0.9446519497    0.7590400205
F        4.7566225081   -0.3727213563   -1.1406691506
F        5.9371052489   -2.2037960643   -1.0000236901
Br      -0.7458822728    0.3225273374    2.8275318062
H        1.9288492011   -0.9667718407   -1.2218964754
H       -0.0118476325    0.0441366930   -0.0047166627
H        3.6831430930   -2.0944810359    2.5285558891
H        2.7389018344   -1.4461173960    4.5757708398
H        1.5694150280   -0.1189430467    4.6206236692
H       -0.0660426275   -1.6935114829    4.5966223696
20   
torsion grid (-60,)
C        1.8479108426   -0.9983995240   -0.1083823933
C        0.7740701107   -0.4396688472    0.5875672267
C        2.8638742799   -1.6295402324    2.0081175605
C        1.7987051847   -1.0686471733    2.7251690918
C        2.8806170146   -1.5837007609    0.6177251903
C        0.7646868655   -0.4801364437    1.9819686505
C        1.7919033047   -1.1299885394    4.2408093724
C        5.0183828710   -1.4464996246   -0.3649954465
O        0.8632373118   -2.0771310313    4.7681902844
O        3.9354803257   -2.2117040611   -0.0738626997
F        5.6211494960   -0.9549466650    0.7429505397
F        4.7100777323   -0.3841635906   -1.1456696116
F        5.8959765639   -2.2128135555   -1.0199530349
Br      -0.7505044984    0.2945594745    2.8862584731
H        1.8823728832   -0.9834062787   -1.1927351071
H       -0.0462442746    0.0210750344    0.0476080618
H        3.6831936581   -2.1090754335    2.5350446224
H        2.7724405506   -1.4525331208    4.5951310452
H        1.5988834361   -0.1278391982    4.6459667509
H       -0.0262279452   -1.8236459071    4.4703919668
20   
torsion grid (-45,)
C        1.8139156267   -1.0118235445   -0.0784594491
C        0.7463510633   -0.4509859769    0.6247511071
C        2.8440848827   -1.6433766179    2.0305255302
C        1.7854511727   -1.0780642719    2.7550314468
C        2.8508753887   -1.5991798019    0.6403418227
C        0.7451274448   -0.4890072133    2.0198310122
C        1.7935323531   -1.1374117751    4.2690674609
C        4.9811423533   -1.4667877112   -0.3591116259
O        0.9025371725   -2.1157806906    4.8102713690
O        3.8991061864   -2.2299322100   -0.0583836078
F        5.5935990518   -0.9756257230    0.7435061806
F        4.6679933017   -0.4046356494   -1.1379998716
F        5.8516811271   -2.2352968637   -1.0206783206
Br      -0.7658137430    0.2814721763    2.9314311021
H        1.8407133553   -0.9971415895   -1.1630514597
H       -0.0769611390    0.0107105612    0.0902693195
H        3.6660524710   -2.1236242307    2.5525298287
H        2.7888665000   -1.4169982175    4.6191686010
H        1.5590841631   -0.1431124524    4.6717092666
H        0.0537496980   -2.0490080270    4.3438263036
20   
torsion grid (-30,)
C        1.8259894850   -0.9871180851   -0.0829672534
C        0.7630935627   -0.4051004556    0.6094560900
C        2.8383505402   -1.6121066302    2.0353886505
C        1.7839762683   -1.0246389409    2.7495884388
C        2.8521069028   -1.5824603800    0.6452615386
C        0.7522727788   -0.4291611744    2.0055981606
C        1.7833795113   -1.0783039997    4.2614094193
C        4.9895382896   -1.4898833764   -0.3435321758
O        0.9348785440   -2.1024220683    4.7951942790
O        3.8941296816   -2.2342504470   -0.0431330106
F        5.6044160576   -1.0016260138    0.7589037347
F        4.6964440181   -0.4279589378   -1.1303023283
F        5.8508474151   -2.2760785299   -0.9962145716
Br      -0.7540514023    0.3663323904    2.8981272345
H        1.8580221901   -0.9824520425   -1.1675376809
H       -0.0507299475    0.0630319764    0.0661489816
H        3.6510837716   -2.0973418658    2.5670990515
H        2.7913764817   -1.2965080526    4.6214501966
H        1.4829647761   -0.1019688257    4.6612520360
H        0.1958279918   -2.2446349634    4.1837513162
20   
torsion grid (-15,)
C        1.9091098767   -1.0892678408   -0.1125718457
C        0.8362359057   -0.5095278682    0.5661939037
C        2.8899920018   -1.7203993116    2.0181626160
C        1.8239836360   -1.1367887028    2.7186531437
C        2.9207447147   -1.6938952090    0.6282493957
C        0.8004611598   -0.5410160013    1.9621359271
C        1.8043382478   -1.1952932254    4.2285774198
C        3.9610830903   -3.5355161470   -0.4094269170
O        0.9603683229   -2.2340950001    4.7458525222
O        4.0383027306   -2.2303685473   -0.0409436968
F        2.9358235756   -3.7748698045   -1.2606869941
F        3.7936524804   -4.3644708108    0.6468216419
F        5.1044468421   -3.8549876776   -1.0230495635
Br      -0.7126602240    0.2607998977    2.8315855636
H        1.9617838722   -1.0718310087   -1.1962008305
H        0.0343602733   -0.0332262566    0.0123182770
H        3.7007596331   -2.1964918693    2.5610994991
H        2.8156715574   -1.3878690546    4.5980444961
H        1.4722978805   -0.2317791121    4.6315631232
H        0.3801719637   -2.5502782651    4.0372737533
20   
torsion grid (0,)
C        1.9011124368   -1.0793762981   -0.1149310887
C        0.8326042097   -0.4895012427    0.5624909875
C        2.8797133232   -1.7067368485    2.0176153420
C        1.8166775585   -1.1158119737    2.7164301430
C        2.9097895929   -1.6865742150    0.6273170691
C        0.7961687417   -0.5151534143    1.9585711019
C        1.7965508750   -1.1747843529    4.2257068460
C        3.9401005082   -3.5393869591   -0.3999849195
O        0.9208919803   -2.1889566431    4.7406941118
O        4.0239709719   -2.2324167148   -0.0401691936
F        2.9125382924   -3.7798057066   -1.2480488543
F        3.7700334619   -4.3608123858    0.6622676829
F        5.0810400657   -3.8687176492   -1.0126828773
Br      -0.7047852408    0.3076951664    2.8247980087
H        1.9528244745   -1.0668360017   -1.1986943410
H        0.0342396453   -0.0092199764    0.0069423219
H        3.6890955146   -2.1837365602    2.5619346100
H        2.8086950540   -1.3811709844    4.5899347329
H        1.4773485782   -0.2110133828    4.6352680565
H        0.5026909431   -2.6497743830    3.9984090897
20   
torsion grid (15,)
C        1.8796939161   -0.6176500968    0.0256602518
C        0.8841378949   -0.0755259622    0.8398797738
C        2.8968698352   -1.6409569125    1.9807480769
C        1.9016037015   -1.1107885851    2.8148612741
C        2.8730562807   -1.3967698307    0.6119767513
C        0.9038161657   -0.3243911970    2.2140892037
C        1.9567395589   -1.3757736530    4.3017161062
C        3.7446874806   -3.1220577303   -0.7364844442
O        2.4896822877   -0.2778026359    5.0563857295
O        3.9205299369   -1.8914035464   -0.1895110561
F        3.5868276105   -4.0882024524    0.1980617717
F        4.8315335575   -3.4058426641   -1.4604539629
F        2.6616859778   -3.1806293480   -1.5464220052
Br      -0.4845440862    0.4650084818    3.2808072466
H        1.8874379032   -0.4384752033   -1.0444956831
H        0.0988232789    0.5356210210    0.4080517973
H        3.6950748138   -2.2442069435    2.4022932330
H        0.9519274732   -1.6090991390    4.6720622622
H        2.5985313916   -2.2404048712    4.4934060489
H        2.4951899070    0.5142896942    4.4985596960
20   
torsion grid (30,)
C        1.8831940583   -0.6287137137    0.0113295345
C        0.8916899075   -0.0809488079    0.8266949811
C        2.9026505340   -1.6460671383    1.9680190210
C        1.9102366714   -1.1122347440    2.8029006651
C        2.8762975631   -1.4076892726    0.5983368320
C        0.9143577256   -0.3255666636    2.2013029867
C        1.9640343705   -1.3753950675    4.2916937577
C        3.7410142362   -3.1389785474   -0.7469427074
O        2.5009716678   -0.2814080185    5.0455434171
O        3.9210452582   -1.9074282650   -0.2037233780
F        3.5819469948   -4.1022758414    0.1903932804
F        4.8258527333   -3.4278921629   -1.4719332388
F        2.6565250037   -3.1970368567   -1.5551049318
Br      -0.4653627033    0.4799598671    3.2718257516
H        1.8886317696   -0.4532956992   -1.0594357904
H        0.1077372324    0.5320917796    0.3951417222
H        3.7013987894   -2.2484575782    2.3897161520
H        0.9581407745   -1.6185205825    4.6557368223
H        2.6123798511   -2.2319526781    4.4898499350
H        2.2944221056    0.5460781692    4.5841643290
20   
torsion grid (45,)
C        1.8995507424   -0.6081506751    0.0199571976
C        0.9246488545   -0.0493211278    0.8482156016
C        2.9326838314   -1.6364795125    1.9649682176
C        1.9578507268   -1.0914857301    2.8122433307
C        2.8904207575   -1.3981642652    0.5952874640
C        0.9638808892   -0.2961569662    2.2212547166
C        2.0207871713   -1.3598035569    4.3021921199
C        3.7170972406   -3.1383363776   -0.7622419470
O        2.5016537408   -0.2508715307    5.0657221822
O        3.9193163170   -1.9102228434   -0.2195904259
F        3.5548958738   -4.1008124230    0.1755432318
F        4.7902804551   -3.4409407125   -1.4990074147
F        2.6234844760   -3.1809773778   -1.5591679697
Br      -0.3954588496    0.5208069641    3.3132100644
H        1.8938736905   -0.4324353857   -1.0507274239
H        0.1422349664    0.5730816178    0.4273584068
H        3.7310489903   -2.2472098544    2.3753086430
H        1.0278923821   -1.6660860524    4.6572545354
H        2.7161612445   -2.1781308981    4.4977225446
H        2.0616484303    0.5540743577    4.7480371840
20   
torsion grid (60,)
C        1.8986589605   -0.6609063343   -0.0384910410
C        0.9163336074   -0.0912304759    0.7740973629
C        2.9138621162   -1.6615250575    1.9298752579
C        1.9329974080   -1.1042988978    2.7611207994
C        2.8840271830   -1.4429530375    0.5562527697
C        0.9441626288   -0.3191039175    2.1501097030
C        1.9823392178   -1.3485485454    4.2572940807
C        3.7237907855   -3.2026495252   -0.7678052893
O        2.4148446091   -0.2122841096    5.0052358774
O        3.9202659984   -1.9664321390   -0.2423280878
F        3.5539543012   -4.1511617388    0.1829797190
F        4.8037193014   -3.5157867331   -1.4903603068
F        2.6373631414   -3.2587020872   -1.5737714539
Br      -0.4295575413    0.5065955070    3.2204058463
H        1.9025801337   -0.4994053894   -1.1114037943
H        0.1376301330    0.5251229309    0.3377257587
H        3.7090142192   -2.2661965278    2.3552775906
H        0.9989166533   -1.6919849004    4.6045133612
H        2.7081690589   -2.1346708283    4.4723444685
H        1.7915348080    0.5136083641    4.8360338465
20   
torsion grid (75,)
C        1.9041073829   -0.6551179010   -0.0392814593
C        0.9260923071   -0.0818168802    0.7764102059
C        2.9250328412   -1.6596083170    1.9251853708
C        1.9506113870   -1.0972498135    2.7594645132
C        2.8890777536   -1.4404061660    0.5515482735
C        0.9616478252   -0.3102115397    2.1517999810
C        2.0064886378   -1.3319366785    4.2571227160
C        3.7166259290   -3.2032372545   -0.7759911195
O        2.4444394889   -0.1842743269    4.9843285641
O        3.9198978702   -1.9678322986   -0.2517845443
F        3.5475545802   -4.1511451620    0.1757153452
F        4.7922811934   -3.5206698762   -1.5032640392
F        2.6265156001   -3.2558794475   -1.5772944126
Br      -0.4084319120    0.5128925545    3.2288081344
H        1.9045428485   -0.4939156709   -1.1122405545
H        0.1469136281    0.5361533377    0.3430370801
H        3.7200048768   -2.2670424389    2.3471479192
H        1.0290375913   -1.6773165929    4.6161673018
H        2.7375252920   -2.1141698548    4.4705784401
H        1.7114211870    0.4525906590    5.0060838791
20   
torsion grid (90,)
C        1.9011568392   -0.6783498127   -0.0726614845
C        0.9160879638   -0.0991561075    0.7308023594
C        2.9105513547   -1.6623774564    1.9078418955
C        1.9300837608   -1.0916655177    2.7285211452
C        2.8834112231   -1.4563163460    0.5317874687
C        0.9423713110   -0.3127459773    2.1085800476
C        1.9778202695   -1.3055621651    4.2285787196
C        3.7239552117   -3.2320074715   -0.7702717691
O        2.4176803365   -0.1396488168    4.9281013547
O        3.9202538471   -1.9898869714   -0.2601513802
F        3.5541800268   -4.1694449039    0.1918751789
F        4.8041347472   -3.5543576589   -1.4889086434
F        2.6377315571   -3.2987367948   -1.5758449791
Br      -0.4395654745    0.5118090346    3.1677012299
H        1.9085224103   -0.5275536456   -1.1471285179
H        0.1382281400    0.5119193491    0.2854638572
H        3.7033984696   -2.2643049997    2.3416591326
H        1.0002506027   -1.6424184375    4.5918440837
H        2.7058149089   -2.0888893886    4.4526709146
H        1.6376651052    0.3946005165    5.1446847702
20   
torsion grid (105,)
C        1.9019635986   -0.6723615255   -0.0725703932
C        0.9196319621   -0.0922895120    0.7338644112
C        2.9172582455   -1.6550512928    1.9054452078
C        1.9410577792   -1.0816584041    2.7287342851
C        2.8854103239   -1.4504687000    0.5291625455
C        0.9502774686   -0.3033554367    2.1119406173
C        1.9951750769   -1.2928275146    4.2274077360
C        3.7203797917   -3.2289230649   -0.7724721134
O        2.4330626736   -0.1118427753    4.9066211794
O        3.9192100393   -1.9860801780   -0.2657653921
F        3.5537548632   -4.1645679695    0.1921836760
F        4.7978155050   -3.5535253699   -1.4944857212
F        2.6312096660   -3.2970717957   -1.5739856108
Br      -0.4326141603    0.5149613895    3.1711897029
H        1.9056198212   -0.5225566787   -1.1472179483
H        0.1396944048    0.5173409745    0.2901498483
H        3.7113112442   -2.2567740531    2.3373554506
H        1.0186934204   -1.6255824135    4.5949383475
H        2.7216426523   -2.0800830885    4.4488290192
H        1.6664562804    0.3017786567    5.3297563747
20   
torsion grid (120,)
C        1.8976004502   -0.7009063190   -0.1162526074
C        0.9040654773   -0.1141470822    0.6715139001
C        2.8945074103   -1.6517285678    1.8863092313
C        1.9069881814   -1.0704382310    2.6901139223
C        2.8770599196   -1.4666712139    0.5069785297
C        0.9188514925   -0.3045383428    2.0529658087
C        1.9464878764   -1.2608721086    4.1899025605
C        3.7340973490   -3.2604617951   -0.7585967408
O        2.3695594861   -0.0545781077    4.8366364150
O        3.9218321982   -2.0092902426   -0.2688994952
F        3.5623056784   -4.1824632801    0.2183719692
F        4.8203886077   -3.5907761996   -1.4647790543
F        2.6534817010   -3.3463926273   -1.5699366948
Br      -0.4815938053    0.5175035463    3.0820350742
H        1.9124189041   -0.5658984867   -1.1927953177
H        0.1262380677    0.4851566862    0.2104046942
H        3.6861692304   -2.2436503643    2.3357047396
H        0.9636822629   -1.5818978340    4.5505798376
H        2.6667799671   -2.0502900290    4.4295404741
H        1.6684953709    0.2401287144    5.4350300169
20   
torsion grid (135,)
C        1.8923139090   -0.7244838186   -0.1496409063
C        0.8884631753   -0.1339032975    0.6218023056
C        2.8748932342   -1.6457392394    1.8731367293
C        1.8766040616   -1.0604762911    2.6606334840
C        2.8698866280   -1.4774402251    0.4917088859
C        0.8898746284   -0.3067344028    2.0060494569
C        1.9029016041   -1.2359212629    4.1604755467
C        3.7499520676   -3.2823116598   -0.7418564233
O        2.3277605440   -0.0138993117    4.7765494679
O        3.9250546408   -2.0234939505   -0.2678061264
F        3.5768035296   -4.1924234530    0.2461291691
F        4.8442256919   -3.6146500231   -1.4348432019
F        2.6765479696   -3.3870432451   -1.5605336004
Br      -0.5251626423    0.5191745235    3.0079234612
H        1.9162555330   -0.6024862540   -1.2276017164
H        0.1118422481    0.4554297807    0.1460919270
H        3.6654062548   -2.2274121572    2.3375325423
H        0.9088283447   -1.5310351388    4.5139442606
H        2.6053825702   -2.0380311715    4.4163629198
H        1.7470747982    0.1726790606    5.5281792138
20   
torsion grid (150,)
C        1.8839087547   -0.7493610602   -0.1803426086
C        0.8664624042   -0.1584648295    0.5723649136
C        2.8491028551   -1.6395366367    1.8631585630
C        1.8353171112   -1.0543093399    2.6313560478
C        2.8606689184   -1.4867107308    0.4803033691
C        0.8501956370   -0.3139732137    1.9589791924
C        1.8484995930   -1.2150075189    4.1314625962
C        3.7720235036   -3.2976333906   -0.7213950022
O        2.3150377026    0.0055786289    4.7198435024
O        3.9296988323   -2.0317246859   -0.2605750098
F        3.5976763978   -4.1979007827    0.2754552897
F        4.8767099811   -3.6272265739   -1.3990944423
F        2.7082998886   -3.4229097086   -1.5497891002
Br      -0.5789965276    0.5189563066    2.9326464354
H        1.9192243863   -0.6396548768   -1.2593280847
H        0.0915224071    0.4194764005    0.0803312281
H        3.6379686071   -2.2095869602    2.3443475419
H        0.8391187671   -1.4604149619    4.4813560694
H        2.5146227510   -2.0441657311    4.4021026301
H        1.9027222539    0.1035765651    5.5911084127
20   
torsion grid (165,)
C        1.8775272870   -0.7295333640   -0.1642862875
C        0.8591440777   -0.1443907406    0.5907428684
C        2.8467876144   -1.6217310301    1.8775083111
C        1.8311403241   -1.0430203683    2.6485432308
C        2.8567069575   -1.4648023111    0.4954605231
C        0.8439241670   -0.3040151230    1.9775469422
C        1.8465804094   -1.2105008709    4.1470653792
C        3.7741608034   -3.2698443799   -0.7101286127
O        2.3469331984   -0.0001931208    4.7274204981
O        3.9273507290   -2.0042642997   -0.2471265418
F        3.6052065967   -4.1728101531    0.2853253936
F        4.8792111120   -3.5936310074   -1.3901369064
F        2.7096927840   -3.3980295903   -1.5370293460
Br      -0.5868082418    0.5245635310    2.9503958371
H        1.9119336084   -0.6174629753   -1.2430947813
H        0.0822022596    0.4328634966    0.1011103141
H        3.6381531580   -2.1900195760    2.3565764005
H        0.8315045615   -1.4247790934    4.5035169907
H        2.4892405871   -2.0614134067    4.4093165298
H        2.1379207249   -0.0096925401    5.6745595809
20   
torsion grid (180,)
C        1.8676794853   -0.7900917031   -0.2307028992
C        0.8255798174   -0.2030548129    0.4890648872
C        2.7985345625   -1.6356249669    1.8467912834
C        1.7576528383   -1.0564742940    2.5837892783
C        2.8401270260   -1.5028971647    0.4632712067
C        0.7788654939   -0.3392040405    1.8781911903
C        1.7444273947   -1.1995883170    4.0845430453
C        3.8095793027   -3.3198703858   -0.6832457937
O        2.2824428447    0.0025851662    4.6487697892
O        3.9338868165   -2.0422781525   -0.2454962740
F        3.6364215981   -4.2036923428    0.3285434765
F        4.9319002881   -3.6406201362   -1.3355571621
F        2.7625171159   -3.4832989644   -1.5262314719
Br      -0.6797353786    0.4962640549    2.8024136366
H        1.9258932346   -0.6961964404   -1.3102103905
H        0.0550378537    0.3578529091   -0.0288350959
H        3.5843973778   -2.1863852730    2.3544163184
H        0.7191213828   -1.3714795364    4.4348793031
H        2.3538911823   -2.0689067148    4.3652337256
H        2.2739505541   -0.0894803095    5.6146901190
