30   
torsion grid (-165,)
C        5.5376638620   -1.9976411540   -1.5044216727
C        5.8279642220   -2.2319260873   -0.1556403909
C        4.4176617497   -1.2334839958   -1.8464510543
C        5.0033579199   -1.6994417460    0.8383256558
C        3.5953596786   -0.6959028309   -0.8508023325
C        3.8874327755   -0.9208461634    0.4995481428
C        2.9544513152    0.9143569768    4.6174445149
C        2.0835541382    1.6606839815    5.6132826660
C        4.2675677530    1.9664467420    1.3219299132
C        3.0562009198   -0.3082961043    1.6055940076
C        3.8279682968    0.8589110821    2.2804893383
N        3.0272945750    1.4612027704    3.3550826902
O        3.5607504631   -0.1100015520    4.9162884812
O        5.1471047797    2.9012653730    1.9476934503
O        1.8032548148    0.1322001843    1.0750271536
H        6.1751573764   -2.4130007926   -2.2806855493
H        6.6905864415   -2.8325847845    0.1212306524
H        4.1813763550   -1.0558114633   -2.8927038233
H        5.2267293791   -1.8949685867    1.8853040431
H        2.7222327170   -0.1077841021   -1.1125814270
H        1.3078665841    0.9823358975    5.9781645236
H        2.6991377906    1.9447556965    6.4708303844
H        1.6095793594    2.5570023893    5.2025661217
H        3.3867910987    2.4766519479    0.9008613107
H        4.8232427249    1.5323387848    0.4911231685
H        2.8814764118   -1.0584092540    2.3873732278
H        4.7174617469    0.4337136085    2.7512881788
H        2.4903774037    2.2966459937    3.1563717430
H        4.7993698574    3.1004100287    2.8319226752
H        1.4055049327    0.7220315258    1.7351052008
30   
torsion grid (-150,)
C        5.5461456311   -2.0589014961   -1.4326447921
C        5.8086631707   -2.2791803900   -0.0755970490
C        4.4397511360   -1.2897725562   -1.8056193112
C        4.9723733189   -1.7291485267    0.8986363838
C        3.6055784250   -0.7346960523   -0.8294033470
C        3.8703222212   -0.9447158353    0.5287067289
C        3.0135190901    0.8160780774    4.6494466139
C        2.1419507108    1.4881186651    5.6956593142
C        4.1798907944    1.9873730410    1.3358770208
C        3.0215136697   -0.3142911113    1.6138563842
C        3.7927014543    0.8525661128    2.2854419847
N        3.0383330742    1.4185393546    3.4104824809
O        3.6606291810   -0.1989602818    4.8888903953
O        5.0727125910    2.9173696100    1.9469768054
O        1.7702133433    0.1122225256    1.0631954663
H        6.1944874790   -2.4894109666   -2.1914929174
H        6.6608323122   -2.8840533410    0.2235360178
H        4.2234643375   -1.1229183123   -2.8580037199
H        5.1741554515   -1.9147725375    1.9519098327
H        2.7403362739   -0.1446927102   -1.1125266182
H        1.3438850411    0.7975457437    5.9822800109
H        2.7469468777    1.6771799262    6.5857603571
H        1.6941145674    2.4281542994    5.3603168041
H        3.2782501369    2.5018142975    0.9644885285
H        4.7013476382    1.5782158544    0.4706035327
H        2.8341992153   -1.0551804726    2.4008466610
H        4.7067978987    0.4299130802    2.7079075289
H        2.4435251625    2.2229514210    3.2532118504
H        4.7694072626    3.0729751866    2.8562263411
H        1.4614773607    0.8808170260    1.5653714181
30   
torsion grid (-135,)
C        5.5417603878   -2.1754424909   -1.3384789040
C        5.7363418953   -2.3508315591    0.0366827643
C        4.4901805187   -1.3726288185   -1.7901341167
C        4.8866945762   -1.7222526653    0.9495371919
C        3.6408827129   -0.7404340437   -0.8754353115
C        3.8381032809   -0.9064246396    0.4996010437
C        3.1640150908    0.8034464713    4.6046122067
C        2.2698800992    1.3315937847    5.7120651144
C        4.0828966688    2.1228526129    1.2740857337
C        2.9687287761   -0.1988230318    1.5224752500
C        3.7545326483    0.9499492826    2.2003523999
N        3.0732222682    1.4619083033    3.3945037067
O        3.9311190226   -0.1389940496    4.7762773344
O        4.9748994585    3.0485326804    1.8850967299
O        1.7458968555    0.2405350377    0.9128664939
H        6.2005544634   -2.6661704480   -2.0503370638
H        6.5458950856   -2.9803239504    0.3971607474
H        4.3274634252   -1.2400831402   -2.8569353271
H        5.0359030262   -1.8685459521    2.0178063659
H        2.8137081145   -0.1285896337   -1.2200846620
H        1.5460752120    0.5556319760    5.9774730631
H        2.8832631500    1.5238087804    6.5955497405
H        1.7300755421    2.2444562407    5.4444035241
H        3.1604422715    2.6379028802    0.9532233716
H        4.5765955492    1.7510908595    0.3750877666
H        2.7169893450   -0.9099212202    2.3184708653
H        4.6943976744    0.5251991252    2.5555193263
H        2.2970902554    2.1019022104    3.2720000611
H        4.6867772908    3.1678077865    2.8055525733
H        1.5518827561    1.1484924219    1.1835161372
30   
torsion grid (-120,)
C        5.4980609422   -2.2248258970   -1.3367954742
C        5.7116186281   -2.3599076845    0.0402436123
C        4.4405993545   -1.4349161746   -1.7968860717
C        4.8756563152   -1.7034106901    0.9458515018
C        3.6042329435   -0.7762691126   -0.8886002168
C        3.8201596976   -0.9008327465    0.4876190252
C        3.2180161120    0.8109040908    4.6071580180
C        2.2835908730    1.2657585610    5.7136365038
C        4.0898038713    2.1470241636    1.2834632224
C        2.9582910435   -0.1676786545    1.5012984925
C        3.7500207466    0.9641371792    2.1946312108
N        3.0693597871    1.4606528739    3.3950143370
O        4.0614121251   -0.0629634323    4.7811860398
O        4.9572806242    3.0737369269    1.9226764496
O        1.7318298545    0.2845218892    0.9063257987
H        6.1467378941   -2.7366964218   -2.0430072715
H        6.5259163737   -2.9791040842    0.4078073470
H        4.2625833021   -1.3337494625   -2.8646758609
H        5.0412431940   -1.8183591058    2.0155982171
H        2.7703777425   -0.1773020100   -1.2401911326
H        1.5992239343    0.4462737117    5.9525641198
H        2.8744715793    1.4716179006    6.6090628547
H        1.6984817103    2.1531054482    5.4561006911
H        3.1719874243    2.6624366095    0.9461193641
H        4.6060465488    1.7856757454    0.3922550720
H        2.6849511289   -0.8764872151    2.2915303996
H        4.6870481920    0.5326978575    2.5475640350
H        2.2067941034    1.9774704782    3.2646038911
H        4.6363390183    3.1862492352    2.8336267791
H        1.6691470980    1.2475019425    0.9702018391
30   
torsion grid (-105,)
C        5.4522127306   -2.2142000936   -1.3110325450
C        5.7070783044   -2.3162668606    0.0618426635
C        4.3709820066   -1.4489654438   -1.7567190399
C        4.8895958144   -1.6505365154    0.9774006442
C        3.5523923180   -0.7822954952   -0.8379576982
C        3.8096110653   -0.8723310198    0.5337943897
C        3.2066734756    0.9158034055    4.6884736971
C        2.2023064341    1.3335605117    5.7474931439
C        4.1582319449    2.1478243345    1.3714340369
C        2.9598944003   -0.1330704173    1.5550550983
C        3.7549414042    0.9770896380    2.2748165333
N        3.0275712965    1.4883089234    3.4402204453
O        4.1242145410    0.1383628409    4.9297643015
O        4.9798248455    3.0814761794    2.0563157234
O        1.7298396439    0.3453640511    0.9890288190
H        6.0873202824   -2.7326498435   -2.0246771505
H        6.5400653414   -2.9165328619    0.4186831656
H        4.1600119312   -1.3737628077   -2.8206188569
H        5.0896205065   -1.7414500916    2.0435007643
H        2.6989550540   -0.2055572779   -1.1800437184
H        1.5802994230    0.4692482045    5.9992425785
H        2.7440325252    1.6225533928    6.6508821181
H        1.5545337748    2.1574115552    5.4352739762
H        3.2664580972    2.6609327814    0.9658674934
H        4.7340805834    1.7744016966    0.5223897417
H        2.6658581011   -0.8497208760    2.3299167915
H        4.6671923586    0.5308044287    2.6712245196
H        2.1112524255    1.8855457298    3.2629466130
H        4.5854844801    3.2149960438    2.9354205784
H        1.7881661573    1.3020113765    0.8516836403
30   
torsion grid (-90,)
C        5.4242062398   -2.2120604691   -1.3960020844
C        5.7440139602   -2.2783124987   -0.0345772518
C        4.2967167998   -1.4945442014   -1.8038809675
C        4.9467188389   -1.6231482286    0.9058228022
C        3.4972059449   -0.8394339713   -0.8600597606
C        3.8197900063   -0.8915148980    0.4999360032
C        3.1994460809    0.9182712610    4.6887158690
C        2.1591919561    1.3297228950    5.7152724309
C        4.2360290212    2.0867882079    1.3874809534
C        2.9867308874   -0.1662623517    1.5456675769
C        3.7887571914    0.9262550432    2.2844687026
N        3.0282855353    1.4505643502    3.4214617028
O        4.1382649016    0.1815819857    4.9725381666
O        5.0241268467    3.0276689862    2.1003474926
O        1.7492162153    0.3375606651    1.0221282688
H        6.0445533204   -2.7213188486   -2.1289296632
H        6.6131802314   -2.8420676981    0.2943545623
H        4.0338874103   -1.4479727918   -2.8577761389
H        5.1997503145   -1.6883276749    1.9622316190
H        2.6073440382   -0.3041703020   -1.1761855255
H        1.5797266444    0.4460376261    5.9988072018
H        2.6720985253    1.6868676535    6.6112724842
H        1.4746207957    2.1039656802    5.3582164989
H        3.3640358311    2.5948809015    0.9352937130
H        4.8522925752    1.7042958893    0.5713126865
H        2.6866990826   -0.8961286633    2.3047504051
H        4.6816435332    0.4688135589    2.7110952846
H        2.0968016775    1.7911993403    3.2072174369
H        4.5841709070    3.1731797433    2.9557726395
H        1.8925601749    1.2370596172    0.6897764312
30   
torsion grid (-75,)
C        5.3777685217   -2.1681893801   -1.4664928636
C        5.7521009937   -2.1882258434   -0.1175985724
C        4.2063094385   -1.5078743397   -1.8444385848
C        4.9669117802   -1.5426937073    0.8391025423
C        3.4171851354   -0.8639885971   -0.8840487386
C        3.7948680274   -0.8669472985    0.4631375021
C        3.1394647809    0.9840987922    4.7023406478
C        2.0495479619    1.3925249686    5.6776549207
C        4.2937906380    2.0489220481    1.4368727212
C        2.9651666419   -0.1583859449    1.5235700231
C        3.7737805290    0.8980034268    2.3081361212
N        2.9668187612    1.4335531205    3.4053055914
O        4.1104803340    0.3193109166    5.0502317303
O        5.0567806963    2.9773366149    2.1921721963
O        1.7456757121    0.3975622832    1.0118835150
H        5.9901713086   -2.6686950352   -2.2119442510
H        6.6561191692   -2.7077281356    0.1893855547
H        3.8998617491   -1.4976863901   -2.8874146509
H        5.2666086867   -1.5734605040    1.8842899868
H        2.4924936308   -0.3787366076   -1.1807493936
H        1.4967321311    0.4972235807    5.9780370672
H        2.5166950086    1.8059317988    6.5743208450
H        1.3461756770    2.1218145109    5.2664751467
H        3.4564990405    2.5684649841    0.9366716794
H        4.9510806348    1.6545308717    0.6590774360
H        2.6290335419   -0.9030103941    2.2521766348
H        4.6316546140    0.4153208011    2.7769019151
H        2.0285943170    1.7235603514    3.1491954122
H        4.5645396434    3.1430198703    3.0147135572
H        1.9624837620    1.1974067713    0.5064466847
30   
torsion grid (-60,)
C        5.3411737955   -2.1119735919   -1.5577532401
C        5.8016714168   -2.0394305253   -0.2378503136
C        4.1024077525   -1.5553280358   -1.8828096719
C        5.0352470557   -1.4039262854    0.7404190266
C        3.3323383158   -0.9227214044   -0.8996193081
C        3.7947770934   -0.8286326654    0.4185990320
C        3.0417833099    0.9907356179    4.6937221446
C        1.9153788103    1.4227640258    5.6165173833
C        4.3704433554    2.0226528014    1.4916860225
C        2.9708709111   -0.1413434335    1.4983964892
C        3.7826737817    0.8791442853    2.3288865237
N        2.9362212607    1.4298352668    3.3872511375
O        3.9857551900    0.3148747456    5.0920904939
O        5.1161261638    2.9296383302    2.2902158949
O        1.7722950647    0.4672657797    0.9952453046
H        5.9393851233   -2.6034575179   -2.3204761744
H        6.7595485295   -2.4775680997    0.0301936110
H        3.7274504361   -1.6184245688   -2.9012257862
H        5.4079070496   -1.3634836489    1.7606494443
H        2.3553278024   -0.5253245976   -1.1570916609
H        1.3360493416    0.5381428396    5.8980451695
H        2.3480784445    1.8359947824    6.5304100476
H        1.2422522117    2.1591192308    5.1689633677
H        3.5668787982    2.5582454335    0.9566208048
H        5.0580793750    1.6206646251    0.7447329706
H        2.6055548037   -0.9007854545    2.1969318081
H        4.6012332206    0.3699739546    2.8384537409
H        2.0191705635    1.7393747556    3.0818342351
H        4.5825881620    3.1092444418    3.0834883652
H        2.0264217042    1.1329110912    0.3352817348
30   
torsion grid (-45,)
C        5.2583669791   -2.1307440170   -1.5957029807
C        5.8545168785   -1.8479227216   -0.3622583912
C        3.9345947739   -1.7456247877   -1.8213152667
C        5.1374252053   -1.1759930792    0.6299768466
C        3.2156700272   -1.0765377528   -0.8251728973
C        3.8107861058   -0.7720162505    0.4078897308
C        2.9622485798    0.9566457103    4.6992447944
C        1.8165491775    1.4314608515    5.5762646907
C        4.4913249591    2.0397095613    1.5970233643
C        3.0073429739   -0.0666207237    1.4917735648
C        3.8320875668    0.8947310113    2.3761526571
N        2.9637191287    1.4567774729    3.4112586197
O        3.8319877242    0.1986481145    5.1189781922
O        5.2569273782    2.8817911163    2.4485137990
O        1.8598871059    0.6262195387    0.9684866676
H        5.8183938543   -2.6502650618   -2.3687305453
H        6.8815397310   -2.1481220936   -0.1714814376
H        3.4553417056   -1.9717093778   -2.7704640139
H        5.6224799255   -0.9718306617    1.5797230831
H        2.1771008175   -0.8111716899   -1.0000717379
H        1.1607673097    0.5806656573    5.7849717129
H        2.2226816738    1.7744759902    6.5305342784
H        1.2246369407    2.2325407254    5.1251313434
H        3.7212967394    2.6244147292    1.0672630031
H        5.1810807103    1.6400687790    0.8510108884
H        2.5807369017   -0.8223767576    2.1597952810
H        4.6041511884    0.3394063033    2.9100084868
H        2.0890185253    1.8395526821    3.0665332218
H        4.7069479299    3.0633854839    3.2299506057
H        2.1395136075    1.1112182342    0.1749731358
30   
torsion grid (-30,)
C        5.2628365532   -2.1211374869   -1.5443166984
C        5.8975778845   -1.7549199950   -0.3533441869
C        3.9136156465   -1.8074245717   -1.7273820983
C        5.1934608340   -1.0698788004    0.6398039586
C        3.2099845383   -1.1256051928   -0.7297089258
C        3.8420877214   -0.7341526592    0.4612796306
C        2.9391479341    0.9314309386    4.7745629193
C        1.7875124215    1.4272857333    5.6324307234
C        4.5709218391    2.0430135253    1.7424698633
C        3.0407698182   -0.0227271734    1.5419498195
C        3.8683862600    0.8903530216    2.4710703906
N        2.9847400375    1.4481075980    3.4957503831
O        3.7762597993    0.1420104357    5.2037125614
O        5.3606901188    2.8218960090    2.6330714945
O        1.9426386585    0.7407393604    1.0029449172
H        5.8127469867   -2.6507101603   -2.3177199105
H        6.9447744691   -1.9995573805   -0.1958921548
H        3.4039180114   -2.1001718070   -2.6417783319
H        5.7104069824   -0.8012851070    1.5555639329
H        2.1519786068   -0.9210137084   -0.8704216312
H        1.1098006430    0.5899615657    5.8245330704
H        2.1830510683    1.7566811451    6.5959897454
H        1.2214688737    2.2434562745    5.1750715987
H        3.8210463560    2.6698993560    1.2355221647
H        5.2531000220    1.6556290186    0.9834586660
H        2.5693361734   -0.7784788680    2.1803145490
H        4.6102873578    0.3011589340    3.0121393527
H        2.1394761168    1.8811706676    3.1381068902
H        4.8046260555    3.0113243416    3.4080200582
H        2.1904034276    1.0400711644    0.1137867258
30   
torsion grid (-15,)
C        5.3787692336   -2.1390403898   -1.4691443718
C        5.4735154909   -2.5953371817   -0.1507616088
C        4.5539503826   -1.0481177585   -1.7602441993
C        4.7431451297   -1.9698657979    0.8632621816
C        3.8335173995   -0.4187819059   -0.7414760143
C        3.9139347464   -0.8755187731    0.5831893426
C        3.3660363365    1.1351333831    4.7270031884
C        2.3148079342    1.5665544268    5.7352034995
C        4.2228990098    2.1356299587    1.3229359896
C        3.1681830149   -0.2019810361    1.7165796717
C        3.9253186507    1.0058599511    2.3147361936
N        3.1447583412    1.5499396811    3.4282444830
O        4.3543494937    0.4857300983    5.0575191950
O        4.9039664277    3.2150928885    1.9517493108
O        1.8271089753    0.2029451798    1.3774993807
H        5.9412199917   -2.6270792882   -2.2606069256
H        6.1104454589   -3.4430871681    0.0875472163
H        4.4778765763   -0.6802498631   -2.7800975265
H        4.8162621290   -2.3350521247    1.8851617531
H        3.2242748174    0.4479248691   -0.9936012843
H        1.8531994389    0.6720549949    6.1630652577
H        2.8092134343    2.1014269174    6.5500445561
H        1.5341502476    2.2028000984    5.3094271448
H        3.2855363967    2.4820952562    0.8594416347
H        4.8813899330    1.7750087923    0.5310363109
H        3.0640856683   -0.9260831615    2.5308572238
H        4.8657675006    0.6512656870    2.7415496923
H        2.1928067676    1.8080651005    3.1881571584
H        4.4545889003    3.3712041421    2.8002822547
H        1.7231618596    0.1831213857    0.4151812691
30   
torsion grid (0,)
C        5.3657225295   -2.1287446413   -1.4777956959
C        5.4723038366   -2.5849226679   -0.1600073193
C        4.5377716848   -1.0394830424   -1.7662871612
C        4.7488239726   -1.9592563873    0.8585756506
C        3.8240618290   -0.4089375194   -0.7433869277
C        3.9174890388   -0.8657820840    0.5808042743
C        3.3532705655    1.1512830485    4.7234283462
C        2.2980781723    1.5941855024    5.7225464385
C        4.2439675154    2.1388273292    1.3231761595
C        3.1755874790   -0.1916424731    1.7153874135
C        3.9321099184    1.0134466324    2.3158521947
N        3.1457449620    1.5648394150    3.4221416175
O        4.3330238641    0.4936699736    5.0630947079
O        4.9237120794    3.2171564791    1.9566335813
O        1.8445962368    0.2373710556    1.3653450819
H        5.9231176080   -2.6171387661   -2.2725968903
H        6.1120080834   -3.4318801405    0.0737266529
H        4.4544242480   -0.6737120992   -2.7863722859
H        4.8289869774   -2.3227638347    1.8805960178
H        3.2104332337    0.4566925076   -0.9858209301
H        1.8193476509    0.7048633827    6.1424350733
H        2.7917434921    2.1190649639    6.5442481290
H        1.5308291997    2.2428385620    5.2911375582
H        3.3134597965    2.4858285391    0.8483132855
H        4.9101560543    1.7722870420    0.5405001671
H        3.0706489971   -0.9187018456    2.5288885009
H        4.8665650739    0.6538360487    2.7513600040
H        2.1989553589    1.8345908337    3.1747347681
H        4.4656043429    3.3785014394    2.7994447130
H        1.6725474662    0.0052707517    0.4411124175
30   
torsion grid (15,)
C        5.3651848652   -2.1176153384   -1.4855976676
C        5.4930819074   -2.5590116144   -0.1643511683
C        4.5173991578   -1.0442291925   -1.7759603625
C        4.7720223439   -1.9348634896    0.8567190264
C        3.8049959150   -0.4146108761   -0.7512856907
C        3.9216111976   -0.8568237106    0.5758201369
C        3.3405705408    1.1479258459    4.7232302765
C        2.2846941051    1.6082944162    5.7136819092
C        4.2740788947    2.1345120678    1.3304001223
C        3.1798341443   -0.1817502719    1.7099043887
C        3.9408276315    1.0127206598    2.3202678467
N        3.1535744661    1.5713612277    3.4222917497
O        4.3034294441    0.4689317354    5.0694225636
O        4.9757090417    3.1968134848    1.9680940246
O        1.8662782552    0.2814616367    1.3419477909
H        5.9213405905   -2.6057177358   -2.2814976004
H        6.1482685759   -3.3938710277    0.0700443418
H        4.4169648222   -0.6907312795   -2.7988929343
H        4.8690289371   -2.2866656224    1.8815169811
H        3.1715973478    0.4371952933   -0.9889031645
H        1.7821696585    0.7273492512    6.1233244771
H        2.7809248906    2.1176558808    6.5435378624
H        1.5363851193    2.2759834336    5.2780002005
H        3.3514473299    2.5000738045    0.8555562488
H        4.9333170764    1.7562565091    0.5473510635
H        3.0626591580   -0.9141008672    2.5189088488
H        4.8675299265    0.6409804985    2.7617729385
H        2.2156888651    1.8648814261    3.1687835897
H        4.5156180026    3.3709238515    2.8071454424
H        1.6148148565   -0.1359430939    0.5044540264
30   
torsion grid (30,)
C        5.3698021967   -2.1039579868   -1.4761340684
C        5.5215664735   -2.5256033521   -0.1506314211
C        4.4931615222   -1.0555237203   -1.7719568955
C        4.7961418421   -1.9055984264    0.8696847820
C        3.7751225751   -0.4300481437   -0.7483126975
C        3.9178136838   -0.8516863351    0.5821555529
C        3.3413620069    1.0770423825    4.7481293590
C        2.3014618197    1.5466381061    5.7511339636
C        4.2965737350    2.1269431802    1.3738010565
C        3.1725484819   -0.1774316913    1.7151912574
C        3.9488211792    0.9947056301    2.3462548281
N        3.1757378129    1.5477662788    3.4610295057
O        4.2766422961    0.3510795054    5.0747572645
O        5.0437030684    3.1525635219    2.0209698269
O        1.8841988221    0.3317652378    1.3273426231
H        5.9298333682   -2.5889488744   -2.2712780798
H        6.1992090505   -3.3413536616    0.0873209095
H        4.3733845266   -0.7192071396   -2.7986676127
H        4.9119838987   -2.2408560405    1.8982637675
H        3.1133214006    0.3995697912   -0.9844861092
H        1.7773312890    0.6720387967    6.1468283400
H        2.8140879772    2.0273903742    6.5881748962
H        1.5699254430    2.2424583684    5.3312310093
H        3.3774478277    2.5303802032    0.9245874301
H        4.9282873023    1.7457409918    0.5698844416
H        3.0303445026   -0.9166601364    2.5151589361
H        4.8714143532    0.6011876524    2.7768930735
H        2.2502758864    1.8829034895    3.2141458784
H        4.5965503434    3.3343102702    2.8652111790
H        1.5380460439   -0.2280608174    0.6152728430
30   
torsion grid (45,)
C        5.3887491482   -2.1049889613   -1.4740060398
C        5.5599505948   -2.4852115347   -0.1380276898
C        4.4755057371   -1.0961465405   -1.7952418625
C        4.8169384480   -1.8614648910    0.8669029363
C        3.7384094031   -0.4670792188   -0.7869089380
C        3.9022533983   -0.8464384948    0.5525425158
C        3.3132817347    1.0425909778    4.7280494915
C        2.2831419969    1.5295296738    5.7329376276
C        4.3157682638    2.1144868260    1.3727827512
C        3.1405116372   -0.1645347546    1.6713411368
C        3.9343770675    0.9794777594    2.3297472136
N        3.1672132543    1.5347828089    3.4467849352
O        4.2256989715    0.2856064158    5.0492140015
O        5.0905000154    3.1097711463    2.0349982310
O        1.8876781136    0.3963398406    1.2472298468
H        5.9625499040   -2.5923072923   -2.2578697740
H        6.2664690718   -3.2699936272    0.1194993167
H        4.3405127695   -0.7940793102   -2.8307304925
H        4.9480200582   -2.1629460804    1.9042945549
H        3.0441030680    0.3303170524   -1.0381975032
H        1.7414270491    0.6646563345    6.1261449550
H        2.8058171113    1.9968423857    6.5714662865
H        1.5663711970    2.2423279666    5.3160036715
H        3.4101873211    2.5494214026    0.9261793681
H        4.9377277549    1.7248042367    0.5652880141
H        2.9537608017   -0.9050774660    2.4615034194
H        4.8446221268    0.5585374465    2.7601676888
H        2.2522445044    1.8968640718    3.1992129874
H        4.6427327469    3.2992967805    2.8770927086
H        1.4381058011   -0.2587036038    0.6903755322
30   
torsion grid (60,)
C        5.4021691371   -2.0901658526   -1.4665016320
C        5.5964738619   -2.4379796566   -0.1247202982
C        4.4571832678   -1.1144397643   -1.7982177056
C        4.8471323120   -1.8146987610    0.8757977869
C        3.7119458874   -0.4861481649   -0.7951632431
C        3.9017663903   -0.8321050506    0.5489261163
C        3.3140413051    1.0108086872    4.7284696788
C        2.2991518967    1.5111851198    5.7423760420
C        4.3454496999    2.1142686780    1.3867096739
C        3.1337496984   -0.1451705121    1.6617515296
C        3.9461001219    0.9775951275    2.3342060652
N        3.1918020706    1.5357319500    3.4580327326
O        4.1968101978    0.2132734971    5.0344255614
O        5.1481294258    3.0842520950    2.0536041075
O        1.9059897141    0.4529611549    1.2177202136
H        5.9820166353   -2.5771529990   -2.2461838122
H        6.3273840844   -3.1972808393    0.1410708682
H        4.3024516714   -0.8388114727   -2.8383688300
H        4.9977590691   -2.0907622196    1.9178013508
H        2.9872327868    0.2817039747   -1.0507103580
H        1.7195779082    0.6590003601    6.1085776435
H        2.8359991015    1.9322393493    6.5962743136
H        1.6152209947    2.2649697219    5.3427171142
H        3.4470176012    2.5749525184    0.9516551164
H        4.9513369893    1.7190347142    0.5698271624
H        2.9188044684   -0.8837112599    2.4463004695
H        4.8502047027    0.5369124724    2.7573144298
H        2.2901004522    1.9311271938    3.2128657259
H        4.7094249779    3.2784391648    2.8993232888
H        1.3471071935   -0.2489554355    0.8487083701
30   
torsion grid (75,)
C        5.4268365106   -2.1072279591   -1.4601103249
C        5.6275211048   -2.4148225461   -0.1094153067
C        4.4520623938   -1.1712500787   -1.8191307666
C        4.8562698333   -1.7894471966    0.8730431198
C        3.6837298181   -0.5422774382   -0.8339142221
C        3.8813647092   -0.8459896804    0.5184620062
C        3.2231016697    0.9935871278    4.6751307921
C        2.2107322403    1.5255880507    5.6754355293
C        4.3321525041    2.0922134350    1.3511166057
C        3.0911270788   -0.1506985001    1.6114570178
C        3.9074005040    0.9630365626    2.2961224240
N        3.1459469427    1.5339497967    3.4081080726
O        4.0695117280    0.1607114838    4.9902421686
O        5.1473411059    3.0488861064    2.0226109245
O        1.8859994120    0.4659956157    1.1300248360
H        6.0245928998   -2.5951347775   -2.2256041244
H        6.3810664118   -3.1437634607    0.1774628314
H        4.2910400751   -0.9283139646   -2.8665116604
H        5.0130036834   -2.0339185743    1.9221158081
H        2.9309418980    0.1910261190   -1.1075125598
H        1.6276012059    0.6868109588    6.0653821127
H        2.7505319846    1.9671187281    6.5173854425
H        1.5315207824    2.2734185003    5.2568962104
H        3.4446864289    2.5684579381    0.9100668869
H        4.9357266280    1.6862742192    0.5378988230
H        2.8469651781   -0.8809419868    2.3942191577
H        4.8015067407    0.5134157300    2.7306296520
H        2.2635347376    1.9605209163    3.1459149714
H        4.7054452059    3.2542985637    2.8639189635
H        1.2355017527   -0.2333328357    0.9639076591
30   
torsion grid (90,)
C        5.4354064976   -2.0792505226   -1.4809323090
C        5.6722908592   -2.3600726428   -0.1302398767
C        4.4200849531   -1.1844335828   -1.8321749304
C        4.8992020772   -1.7480048655    0.8591043996
C        3.6479134123   -0.5694676804   -0.8409168597
C        3.8841269955   -0.8452378731    0.5106592831
C        3.1966090940    0.9642436818    4.6780844809
C        2.1879522299    1.5251899995    5.6663569901
C        4.3837821561    2.0557502477    1.3750655087
C        3.0927699618   -0.1598119640    1.6096254783
C        3.9243527857    0.9334879861    2.3119825397
N        3.1615729882    1.5176955371    3.4153859564
O        4.0050694502    0.0964618532    4.9990527699
O        5.2048833809    2.9984187072    2.0591562823
O        1.8994435509    0.4769789783    1.1200902954
H        6.0354810362   -2.5562689589   -2.2515096262
H        6.4566639935   -3.0577550510    0.1517101533
H        4.2292846961   -0.9631417522   -2.8793722717
H        5.0855121036   -1.9728642956    1.9077555668
H        2.8611222988    0.1294080713   -1.1074478248
H        1.5639723283    0.7065642073    6.0354736042
H        2.7294407540    1.9343010166    6.5234254462
H        1.5477414230    2.3052232537    5.2450306247
H        3.5115586796    2.5472714421    0.9199700517
H        4.9924342061    1.6393021607    0.5710919826
H        2.8336165930   -0.8962287522    2.3804511844
H        4.8039791244    0.4650305218    2.7559992892
H        2.3028029463    1.9830838400    3.1413556858
H        4.7575436371    3.2070320504    2.8967332155
H        1.1748087731   -0.1640018864    1.1600394393
30   
torsion grid (105,)
C        5.4398553486   -2.0630799318   -1.4887824614
C        5.7083185192   -2.3126506757   -0.1379265671
C        4.3878009200   -1.2103606225   -1.8365261384
C        4.9306046294   -1.7092864881    0.8531734949
C        3.6100924311   -0.6053418039   -0.8433760696
C        3.8784961836   -0.8483990639    0.5081982056
C        3.1482691898    0.9684442869    4.6674176003
C        2.1446352808    1.5639538950    5.6405732490
C        4.3980181512    2.0319484551    1.3739135500
C        3.0841527916   -0.1697390334    1.6089980085
C        3.9191721467    0.9212416373    2.3141941932
N        3.1510870884    1.5218456462    3.4048612542
O        3.9217461102    0.0733372092    4.9997002011
O        5.2227578146    2.9724231622    2.0570897785
O        1.8892565981    0.4580010428    1.1070453210
H        6.0433324645   -2.5320721807   -2.2616471828
H        6.5203884647   -2.9784408716    0.1427980186
H        4.1716118126   -1.0145240118   -2.8838719842
H        5.1421467093   -1.9106651496    1.9017307176
H        2.7923442021    0.0574737248   -1.1074681075
H        1.4934943612    0.7659956558    6.0079078180
H        2.6879668810    1.9630350506    6.5012394746
H        1.5319979145    2.3597136174    5.2076542255
H        3.5342174218    2.5280124237    0.9072763846
H        5.0090823180    1.6035170265    0.5782111351
H        2.8250773332   -0.9088704791    2.3761955193
H        4.7903790593    0.4491863234    2.7710605874
H        2.3180174049    2.0244960537    3.1182552049
H        4.7739652547    3.1893557265    2.8916570857
H        1.1297247404   -0.0862190136    1.3565799703
30   
torsion grid (120,)
C        5.4486053193   -2.0571510335   -1.5128131574
C        5.7464020600   -2.2718600831   -0.1621122565
C        4.3656536169   -1.2438444675   -1.8596606842
C        4.9681626299   -1.6721892809    0.8307038923
C        3.5861970303   -0.6433871251   -0.8650332163
C        3.8847368873   -0.8506937642    0.4861396857
C        3.1124762836    0.9714737983    4.6338029794
C        2.1209363485    1.5984189045    5.5997273160
C        4.4105799365    2.0224731004    1.3488937673
C        3.0887986427   -0.1746936099    1.5864468892
C        3.9229969634    0.9187730225    2.2918762277
N        3.1519072427    1.5305187922    3.3749106210
O        3.8476063575    0.0453482418    4.9680852783
O        5.2463484738    2.9577340892    2.0266973040
O        1.8897795104    0.4321911670    1.0679583601
H        6.0534243922   -2.5232195331   -2.2863959672
H        6.5822041539   -2.9080191183    0.1176367208
H        4.1258645669   -1.0760261573   -2.9067512059
H        5.2028356787   -1.8477418384    1.8788795715
H        2.7422908138   -0.0141443365   -1.1278294388
H        1.4421099584    0.8218543236    5.9626316887
H        2.6705840659    1.9801042354    6.4643072041
H        1.5372754869    2.4138131682    5.1631451503
H        3.5500828810    2.5248078019    0.8825711720
H        5.0154087810    1.5863072954    0.5527508363
H        2.8318417065   -0.9164875927    2.3513064758
H        4.7904960742    0.4474997826    2.7568359984
H        2.3510149153    2.0802901864    3.0838805122
H        4.8049068310    3.1806282391    2.8634377009
H        1.1287305022    0.0293803388    1.5069316719
30   
torsion grid (135,)
C        5.4647832982   -2.0455609138   -1.5210798611
C        5.7746398306   -2.2417587827   -0.1703384421
C        4.3621417459   -1.2591812794   -1.8678168916
C        4.9898346829   -1.6500856082    0.8220414808
C        3.5751659118   -0.6667855348   -0.8742680901
C        3.8867194004   -0.8554106799    0.4768090908
C        3.0684625318    0.9610994403    4.6226600875
C        2.0945158534    1.6169508953    5.5873641530
C        4.4030296030    2.0132378824    1.3491262850
C        3.0841379482   -0.1885065971    1.5761856834
C        3.9101471273    0.9092331285    2.2877661221
N        3.1318354442    1.5214931343    3.3663390863
O        3.7698612801    0.0082661136    4.9543255412
O        5.2494998992    2.9402099607    2.0261686940
O        1.8799033256    0.3900881413    1.0411990897
H        6.0748835866   -2.5053671854   -2.2942753085
H        6.6252100358   -2.8576789725    0.1101375036
H        4.1119444230   -1.1065457956   -2.9147803951
H        5.2340479956   -1.8126654275    1.8700283964
H        2.7149372883   -0.0610175619   -1.1385210567
H        1.3888129999    0.8621426914    5.9447627059
H        2.6533964860    1.9765897304    6.4554512755
H        1.5396092842    2.4532609494    5.1525997756
H        3.5446245789    2.5236477865    0.8874653792
H        5.0010290903    1.5757035181    0.5487509777
H        2.8315207194   -0.9369540650    2.3363299488
H        4.7749916141    0.4396768369    2.7598634787
H        2.3736141164    2.1311180483    3.0817332849
H        4.8185394966    3.1614297555    2.8685482380
H        1.1477567383    0.1616375502    1.6297797671
30   
torsion grid (150,)
C        5.4799740052   -2.0226165348   -1.5511239641
C        5.7987253390   -2.2259813078   -0.2036033929
C        4.3658721093   -1.2476641701   -1.8869547725
C        5.0099980401   -1.6517223321    0.7958671389
C        3.5756342429   -0.6721580356   -0.8861937628
C        3.8958727099   -0.8677552698    0.4620193730
C        3.0515391585    0.9438016059    4.6179605306
C        2.1031999127    1.6300810984    5.5869475823
C        4.4016551344    1.9915047315    1.3477499431
C        3.0927231950   -0.2200300780    1.5705235976
C        3.9084197253    0.8862882830    2.2838430023
N        3.1224715903    1.4965430308    3.3593261223
O        3.7259625382   -0.0294001673    4.9457066086
O        5.2498430218    2.9184984639    2.0236213216
O        1.8754371821    0.3246300833    1.0366282941
H        6.0920020357   -2.4688586957   -2.3307015301
H        6.6578544743   -2.8336834789    0.0686116800
H        4.1088456365   -1.0909332627   -2.9316409154
H        5.2597985236   -1.8202858932    1.8415346812
H        2.7064865963   -0.0763787439   -1.1435284329
H        1.3797649818    0.8964346644    5.9526126937
H        2.6783904928    1.9775811734    6.4493086182
H        1.5675906183    2.4796253182    5.1534066118
H        3.5433954936    2.5025064266    0.8858716064
H        4.9986968505    1.5543675036    0.5466745821
H        2.8588987271   -0.9786243550    2.3274966028
H        4.7722852513    0.4201555172    2.7618098339
H        2.4135905230    2.1682786830    3.0891996941
H        4.8298455173    3.1315067560    2.8733521843
H        1.2056146339    0.2897439288    1.7342892336
30   
torsion grid (165,)
C        5.4996628665   -2.0180811808   -1.5367929007
C        5.8050753249   -2.2286801993   -0.1873551186
C        4.3846958170   -1.2468074073   -1.8783881254
C        5.0032517434   -1.6666274698    0.8087454832
C        3.5821973831   -0.6818470094   -0.8815250648
C        3.8895033301   -0.8851727773    0.4687858363
C        3.0109485950    0.9367966406    4.6163691880
C        2.0922735379    1.6488159192    5.5950994331
C        4.3515340612    1.9870148040    1.3404371092
C        3.0753424347   -0.2469311056    1.5729296514
C        3.8738479442    0.8783679450    2.2795318326
N        3.0793820231    1.4819698544    3.3544843028
O        3.6621274225   -0.0544493152    4.9356890138
O        5.2110835025    2.9138389851    2.0034009143
O        1.8495879454    0.2603819704    1.0297923064
H        6.1219713528   -2.4558116107   -2.3130748830
H        6.6645593107   -2.8338374291    0.0892902256
H        4.1367939735   -1.0847263907   -2.9244595061
H        5.2421442223   -1.8423578465    1.8557776765
H        2.7129537043   -0.0885322070   -1.1441954331
H        1.3525029085    0.9352057974    5.9674719808
H        2.6857328282    1.9795448296    6.4516211768
H        1.5749918609    2.5127793706    5.1676808229
H        3.4863741975    2.4992367806    0.8925158473
H        4.9356141586    1.5526693781    0.5286653425
H        2.8564507822   -1.0045248301    2.3361929825
H        4.7446480913    0.4250091720    2.7578552913
H        2.4300850163    2.2194279506    3.1082192340
H        4.8131089588    3.1223272715    2.8644450686
H        1.2574356385    0.4399666689    1.7756953188
30   
torsion grid (180,)
C        5.5255752877   -2.0103023024   -1.5208061171
C        5.8188253924   -2.2289007815   -0.1699556073
C        4.4082809759   -1.2453206934   -1.8691477766
C        5.0014781698   -1.6810012795    0.8214657549
C        3.5918015228   -0.6931776284   -0.8765769574
C        3.8866161416   -0.9039699018    0.4755194968
C        2.9699765109    0.9317651523    4.6099582147
C        2.0787546903    1.6667218535    5.5966806116
C        4.2998417177    1.9789227250    1.3265082400
C        3.0586773864   -0.2774708467    1.5756265906
C        3.8386531387    0.8692460965    2.2720371393
N        3.0330998862    1.4680181182    3.3434008786
O        3.6006114558   -0.0741635895    4.9225511919
O        5.1707551322    2.9073733397    1.9730533836
O        1.8233338065    0.1947531017    1.0294921389
H        6.1592937922   -2.4376301531   -2.2936467097
H        6.6800547476   -2.8295209280    0.1111664896
H        4.1697922822   -1.0782098977   -2.9166355788
H        5.2290276031   -1.8640292348    1.8697840059
H        2.7211329883   -0.1038541952   -1.1435205172
H        1.3230414138    0.9721152427    5.9728367295
H        2.6870810244    1.9798787396    6.4493178933
H        1.5800018172    2.5441411573    5.1746213969
H        3.4278688968    2.4916539861    0.8917452751
H        4.8702474441    1.5456481453    0.5049035336
H        2.8572069763   -1.0320886854    2.3471253585
H        4.7167640814    0.4307324624    2.7513725552
H        2.4494731958    2.2657543397    3.1227086352
H        4.7932048082    3.1180522693    2.8423922322
H        1.3228443678    0.5877370714    1.7619706964
