8    
torsion grid (-165,)
C        0.4157342431    0.0957222465    0.6436240385
C       -0.3317360922   -0.0130342221   -0.7327327182
F        0.6955647185   -1.1283226083    1.1193881814
F        1.5639611537    0.7751597763    0.4867098719
F       -1.6082707385   -0.3930693873   -0.5095822021
Cl      -0.3499914095    1.5671419638   -1.5477761470
Br      -0.6894740635    1.0395895122    1.9664420794
Br       0.5436159011   -1.3665196223   -1.8572181885
8    
torsion grid (-150,)
C        0.4333976016    0.1012578688    0.6460183114
C       -0.3260786111   -0.0293256569   -0.7390166394
F        0.8617819264   -1.0943695190    1.0751098445
F        1.4905145795    0.9201160884    0.5194590196
F       -1.6392960121   -0.2522235332   -0.5171338520
Cl      -0.1947269264    1.4989844471   -1.6471396619
Br      -0.7483154154    0.8714664620    2.0191935965
Br       0.4014634767   -1.5201278284   -1.7859458871
8    
torsion grid (-135,)
C        3.6274893386   -5.4426339489    7.7650252694
C        3.1157247885   -6.7044964055    6.9199004446
F        4.1578940502   -5.8258497920    8.9357484452
F        4.5685616278   -4.7722338875    7.0797560957
F        1.7684135158   -6.7731480891    6.9654214431
Cl       3.5712356315   -6.5262985145    5.2058170292
Br       2.1620036611   -4.1853664597    8.1340366891
Br       3.8387675841   -8.3789644085    7.6474234185
8    
torsion grid (-120,)
C       -0.7968495119    1.3534876439   -0.3534451005
C       -0.5687905226    1.1816854945   -1.9386003624
F       -1.8785510100    0.6668725661    0.0499894079
F        0.2558110372    0.8642601638    0.3249135216
F       -0.5842186101    2.3921427085   -2.5376624673
Cl       1.0067254430    0.4287513833   -2.2756700053
Br      -1.0374154246    3.2314189609    0.1569307352
Br      -2.0164912155    0.1224278730   -2.7478339863
8    
torsion grid (-105,)
C       -0.7738886397    1.3743442693   -0.3668717392
C       -0.5466112240    1.1886109848   -1.9416976842
F       -1.7268095347    0.5282245596    0.0667943351
F        0.3478118292    1.0532564026    0.3049422996
F       -0.4088015189    2.3991277630   -2.5271090545
Cl       0.9046887682    0.2236177161   -2.2709455376
Br      -1.3053487581    3.1972188833    0.0955354470
Br      -2.1313974165    0.3576107570   -2.7680204935
8    
torsion grid (-90,)
C       -0.7527843170    1.3681119006   -0.3685829131
C       -0.5355216329    1.1930167714   -1.9282414856
F       -1.5609246502    0.3893515682    0.0856958307
F        0.4203812868    1.2187280633    0.2774339854
F       -0.2542199707    2.3949035794   -2.4792760332
Cl       0.7884696256    0.0635690582   -2.2607903041
Br      -1.5368998566    3.0982024028    0.0752411147
Br      -2.2120620843    0.5760169507   -2.7619068192
8    
torsion grid (-75,)
C       -0.7160834061    1.8291036277   -0.8993803376
C       -0.1870312980    1.5323673427   -2.3480725022
F       -1.5876008914    0.8712716031   -0.5337526094
F        0.3145662444    1.7859321338   -0.0318729626
F        0.4645215085    2.6253655783   -2.8041686840
Cl       0.9306751741    0.1517417028   -2.3170375236
Br      -1.5810568214    3.5786310629   -0.7812777316
Br      -1.6957990781    1.1831426051   -3.5564428689
8    
torsion grid (-60,)
C       -0.7548804461    1.3895695708   -0.3974940391
C       -0.5330797076    1.1746513852   -1.9321767490
F       -1.2962255525    0.2873699860    0.1468316156
F        0.4443778911    1.6076313548    0.1778677268
F        0.0411308173    2.2911180481   -2.4307985851
Cl       0.5838367188   -0.1947469346   -2.1705495715
Br      -1.8974789856    2.9350894755   -0.0234906632
Br      -2.2272714523    0.8484377176   -2.8592921480
8    
torsion grid (-45,)
C        0.1679287469   -1.6761953061    2.5532718457
C        0.2481930921   -2.7729285116    3.6747343700
F       -0.6802349098   -2.0506085615    1.5869820875
F       -0.2718836996   -0.5379588803    3.1235835252
F        0.8310932254   -2.2091551340    4.7545889761
Cl      -1.4248830902   -3.2177441222    4.1393113944
Br       1.9194835181   -1.2707666676    1.7586803806
Br       1.2365789251   -4.3632968993    3.1254529495
8    
torsion grid (-30,)
C        0.1823117887   -1.6635991634    2.5833262801
C        0.2316415084   -2.7751667301    3.7161566475
F       -0.7726045436   -1.9364954330    1.6864488819
F       -0.0832886035   -0.4895200727    3.1860077985
F        0.6559982073   -2.1753029957    4.8495764442
Cl      -1.4470986004   -3.3318689031    4.0252213804
Br       1.8846113379   -1.4187774647    1.6272980618
Br       1.3686148095   -4.3064352045    3.3090711921
8    
torsion grid (-15,)
C        4.6676534526   -2.2787092658    4.6891277654
C        6.1254132856   -2.6337470521    4.1050233676
F        4.6368724313   -1.0237993034    5.1574409239
F        3.7949600403   -2.3866398899    3.6704251529
F        5.9348487031   -3.2326799743    2.9087142885
Cl       7.0205957504   -1.1155225895    3.7884038363
Br       4.0135903881   -3.4666967528    6.1110324504
Br       7.2156219901   -3.8073989010    5.2235532077
8    
torsion grid (0,)
C        5.0838920968   -0.9885160795    4.0383297032
C        6.1469429134   -1.7959133156    3.1197854298
F        5.1328632883    0.3235569546    3.7437833334
F        3.8564783198   -1.4301409843    3.7101257207
F        5.4274331589   -2.6353325094    2.3405527247
Cl       7.0356556576   -0.6756325763    2.0596234234
Br       5.2924164564   -1.1544728210    5.9762579047
Br       7.4232220464   -2.9080825144    4.1134480382
8    
torsion grid (15,)
C        0.5061086300    0.1592814038    0.7194154763
C       -0.1489967760    0.0494278080   -0.7464299464
F        0.0473378067   -0.8629879265    1.4752583635
F        1.8307858504   -0.0310807261    0.5902051654
F        0.7837569057   -0.5205315613   -1.5448853789
Cl      -1.6101309075   -0.9521227688   -0.7253821716
Br       0.1662875355    1.8050989429    1.7078054211
Br      -0.5412245863    1.7981243450   -1.5642761940
8    
torsion grid (30,)
C        0.5124599895    0.1611620414    0.6923382563
C       -0.1717900312    0.0213996936   -0.7342465408
F        0.2333878197   -0.9611362125    1.3988716489
F        1.8451436240    0.1689023853    0.5159322916
F        0.6885999897   -0.6844423608   -1.5060073166
Cl      -1.7265723575   -0.8100349728   -0.6244330407
Br      -0.0568748554    1.6874046024    1.7575938845
Br      -0.3682181089    1.7671937571   -1.6305967621
8    
torsion grid (45,)
C        2.9960559873    1.2213923330    0.2780198057
C        2.4592246619    0.3990884870   -0.9507087596
F        1.9532169937    1.8987543080    0.8100714966
F        3.4157163866    0.3532966081    1.2150321309
F        1.6868594546   -0.5892610551   -0.4365163233
Cl       1.4942233021    1.4171797940   -2.0287499337
Br       4.4062128959    2.4959571488   -0.1540328549
Br       3.9320917741   -0.4795058174   -1.9111206978
8    
torsion grid (60,)
C       -1.1691435501    0.1803326924    1.5345386415
C       -1.4560432669   -0.0311496514    0.0069789849
F       -0.8317877017   -1.0116842727    2.0652571815
F       -0.1114088689    1.0020892950    1.6616086951
F       -0.3311911826   -0.5823341518   -0.5131328489
Cl      -2.8050288668   -1.1559612748   -0.2408749628
Br      -2.6812687320    0.9205572582    2.5264303000
Br      -1.7688027468    1.6839499325   -0.8874449256
8    
torsion grid (75,)
C        0.3113761684    0.3129545294    0.7934341069
C       -0.2535499000    0.0172550083   -0.6469316448
F        0.3566044419   -0.8408558517    1.4781658218
F        1.5616378329    0.8009014853    0.6835402936
F        0.3632405252   -1.1164509992   -1.0678203226
Cl      -1.9999691070   -0.3277183989   -0.6039537291
Br      -0.7441594746    1.6294140457    1.7917882099
Br       0.1541982281    1.4788836137   -1.8754508200
8    
torsion grid (90,)
C        0.3110873117    0.3281626697    0.7885704974
C       -0.2742147940    0.0041096114   -0.6570909212
F        0.5279901976   -0.8308824964    1.4270566961
F        1.4810570662    0.9837286662    0.6646937954
F        0.2229117566   -1.2092384977   -1.0039465165
Cl      -2.0473038339   -0.1670512387   -0.6541011758
Br      -0.8447337734    1.4675258303    1.8902503508
Br       0.2839584176    1.3443194688   -1.9661726541
8    
torsion grid (105,)
C       -3.2390466112    0.0015932203    0.5457177189
C       -2.4089449475    0.0828944406    1.9249301434
F       -3.8940136796   -1.1690361218    0.5266087011
F       -4.1458711757    0.9943038706    0.4948728167
F       -2.8793196904   -0.9123295209    2.7144098519
Cl      -0.6632519251   -0.2038759612    1.7321932196
Br      -2.1660575766    0.1449763309   -1.0913386883
Br      -2.7060444756    1.7959353558    2.8316119147
8    
torsion grid (120,)
C       -3.2507116560    0.0384893763    0.5429975734
C       -2.3943907379    0.0806636200    1.9151440216
F       -4.0795178410   -1.0183773378    0.6244804602
F       -4.0147612456    1.1381490323    0.4299603151
F       -2.7552488279   -1.0043244337    2.6362559924
Cl      -0.6365085630    0.0284967167    1.6909232446
Br      -2.2126310345   -0.1318702572   -1.1102719292
Br      -2.8747287764    1.6691683620    2.9795098118
8    
torsion grid (135,)
C        7.9230531953    5.0437766753   -6.1992378670
C        8.3663726844    6.5416889405   -5.8308465689
F        7.9135158133    4.3480867746   -5.0439983899
F        6.6676911621    5.0198219818   -6.6756578298
F        8.9741759766    6.4938403243   -4.6255195164
Cl       9.4473142417    7.3025998742   -7.0043363732
Br       9.0932885967    4.1039471059   -7.4547491493
Br       6.7539275579    7.6647971742   -5.5879552981
8    
torsion grid (150,)
C        7.9046659647    5.0762997902   -6.2096596788
C        8.3726663107    6.5446818133   -5.8417309081
F        7.7139540381    4.4258159005   -5.0414056544
F        6.7200215918    5.0969905133   -6.8415314905
F        9.1168730461    6.4618137945   -4.7179150639
Cl       9.2798277917    7.3527833049   -7.1230707850
Br       9.2019214443    4.0576739825   -7.2590378210
Br       6.7755053143    7.6142462193   -5.3624434768
8    
torsion grid (165,)
C        0.3817647756    0.1019481540    0.6680594947
C       -0.3631539836    0.0234525254   -0.7100649838
F        0.3641764915   -1.1326912467    1.2117373995
F        1.6660064011    0.4494753705    0.4851043218
F       -1.5234976817   -0.6384884319   -0.5113545436
Cl      -0.6722055347    1.6150208172   -1.4138652026
Br      -0.4730408488    1.3305955277    1.9289103762
Br       0.7245850032   -1.0750041202   -1.9427790737
8    
torsion grid (180,)
C        0.4116521912    0.0944438232    0.6665182767
C       -0.3299480236   -0.0114818596   -0.7063681624
F        0.5408973960   -1.1376704444    1.1911405524
F        1.6377606361    0.6124305130    0.4854532506
F       -1.5552713548   -0.5349594403   -0.4837966402
Cl      -0.4916313840    1.5777515118   -1.4752549397
Br      -0.5822554685    1.2049134583    1.9415395290
Br       0.6638363643   -1.2477204603   -1.8740024673
