17   
torsion grid (-45,)
C        4.0405550420   -1.6884099627   -3.2445915228
C        4.6297416828   -2.1741232403   -2.0964130780
C        2.9656695122   -0.5046968738   -1.7906885853
C        0.8997139058   -0.6402275483   -0.4255822316
C        1.1803965827    1.2494257034   -2.1079704050
C        1.8930727366    0.3170275871   -1.1218709861
N        3.1814954195   -0.5518508654   -3.0755770621
S        4.4832416338   -0.8611769253   -0.9088708317
H        4.1030534229   -2.1432407583   -4.2276006821
H        5.3973526075   -2.9348450005   -2.0254975514
H        0.3871343716   -1.2659205033   -1.1637879436
H        0.1437192512   -0.0639894037    0.1173243635
H        1.4091045221   -1.2967230513    0.2862448283
H        0.7057538771    0.6771475622   -2.9096324469
H        1.8842404687    1.9461331139   -2.5712281305
H        0.4079505933    1.8242127349   -1.5863692183
H        2.3728379575    0.9154133016   -0.3353431555
17   
torsion grid (-30,)
C        3.9779541478   -1.7888542522   -3.2395509223
C        4.7677434225   -2.0857414418   -2.1567737724
C        2.9338626863   -0.5581468399   -1.7464908040
C        0.8245516112   -0.6307461163   -0.4349409269
C        1.2311032851    1.2698702741   -2.0763210460
C        1.8774203126    0.2920364919   -1.0860723739
N        3.0027643881   -0.8100170501   -3.0268071390
S        4.4833027484   -0.8590685432   -0.9389513173
H        4.0316899829   -2.2775324363   -4.2065717769
H        5.6372767934   -2.7298451482   -2.1224530130
H        0.3073626387   -1.2184485215   -1.2002079792
H        0.0800871036   -0.0332678418    0.1015070241
H        1.2853867005   -1.3240227282    0.2755930405
H        0.7573410111    0.7287358718   -2.8992882145
H        1.9766761425    1.9448144428   -2.5065036776
H        0.4690014739    1.8693497139   -1.5672757997
H        2.3588320974    0.8624803409   -0.2814495432
17   
torsion grid (-15,)
C        3.8588856495   -2.0717099576   -3.1295885290
C        4.9271493398   -1.9333542717   -2.2841136393
C        2.9195395488   -0.6605225100   -1.6997463561
C        0.7078009225   -0.6613273407   -0.5484363469
C        1.3846906167    1.2978439879   -2.0245720066
C        1.8732816667    0.2114418171   -1.0503163116
N        2.7537925057   -1.3001546828   -2.8272836276
S        4.5926286705   -0.6604408856   -1.1493278973
H        3.8237068364   -2.7401669025   -3.9833142361
H        5.9057171405   -2.3905980329   -2.3518413790
H        0.2358797854   -1.1808282572   -1.3873417795
H       -0.0459855948   -0.0389126246   -0.0547723074
H        1.0546037850   -1.4138498215    0.1669202805
H        0.9339224217    0.8386974031   -2.9086312367
H        2.2128774209    1.9322586795   -2.3557752339
H        0.6356730540    1.9331349421   -1.5396963766
H        2.3335677590    0.6995988148   -0.1831061667
17   
torsion grid (0,)
C        3.8563436794   -2.0778488632   -3.1205350804
C        4.9560089796   -1.8707958798   -2.3325807883
C        2.9207364727   -0.6569101743   -1.6952636113
C        0.6982947025   -0.6496534952   -0.5479663105
C        1.3962218737    1.2973382722   -2.0305904629
C        1.8716881179    0.2126803444   -1.0471554139
N        2.7179481179   -1.3923532061   -2.7554027124
S        4.5560214953   -0.7599574478   -1.0628482909
H        3.8294926125   -2.7292098493   -3.9877981780
H        5.9460744054   -2.2968881821   -2.4268305716
H        0.2298884497   -1.1726676352   -1.3864087889
H       -0.0557336082   -0.0201783867   -0.0634718724
H        1.0371714743   -1.3990532381    0.1743436633
H        0.9463487110    0.8358430964   -2.9141005838
H        2.2300510396    1.9246093264   -2.3613756555
H        0.6491031380    1.9405502535   -1.5534929887
H        2.3309108064    0.7065248038   -0.1825207627
17   
torsion grid (15,)
C        3.8202207669   -2.1284557425   -3.0140094620
C        4.9496665990   -1.8062261743   -2.3059900207
C        2.8914436185   -0.6671195161   -1.6440870362
C        0.6258407846   -0.6009443221   -0.5639145544
C        1.4402711261    1.3270996841   -2.0109314103
C        1.8442176641    0.2214748620   -1.0168979016
N        2.6447546433   -1.5268753743   -2.5965973745
S        4.4939735586   -0.8263313176   -0.9454724043
H        3.7969099498   -2.7943641313   -3.8704391322
H        5.9494886727   -2.2031657924   -2.4216208424
H        0.1679570388   -1.1040563596   -1.4197333207
H       -0.1212386737    0.0526467061   -0.1009476973
H        0.9147438538   -1.3652328059    0.1643664217
H        1.0034891365    0.8848816737   -2.9111504618
H        2.3051682929    1.9273867521   -2.3109102990
H        0.7000474908    1.9938825706   -1.5561302759
H        2.2908785878    0.7005851616   -0.1374121206
17   
torsion grid (30,)
C        3.8005025930   -2.2962325584   -2.8461988783
C        4.9400018681   -1.5981037159   -2.5319491559
C        2.8744210644   -0.7277167212   -1.6149069550
C        0.5512747988   -0.6147559087   -0.6453295126
C        1.5402775118    1.3446484174   -1.9315452904
C        1.8311890841    0.1603766837   -0.9843830343
N        2.6325281933   -1.8651208938   -2.2108819484
S        4.5790624958   -0.5867863804   -1.1479503689
H        3.7413918111   -3.1076204532   -3.5638358738
H        5.9592048642   -1.8180180943   -2.8235196293
H        0.1105539529   -1.0463469066   -1.5475860749
H       -0.1814181044    0.0562750657   -0.1847667671
H        0.7593833669   -1.4342814126    0.0484965808
H        1.1146045289    0.9841808005   -2.8736110835
H        2.4511862967    1.9064903325   -2.1604106292
H        0.8212802665    2.0289323605   -1.4691710425
H        2.2552319997    0.5740775205   -0.0603621334
17   
torsion grid (45,)
C        3.8105025589   -2.3335850700   -2.7517783691
C        4.8826860519   -1.4756276415   -2.6263769530
C        2.8656769735   -0.7876421240   -1.5737536968
C        0.5106906528   -0.6180721940   -0.6849171456
C        1.6063585821    1.3208655139   -1.9178111939
C        1.8237026135    0.1196284585   -0.9703271008
N        2.6572241188   -2.0152913918   -1.9600205834
S        4.5860956598   -0.5796673988   -1.1214310290
H        3.7401597342   -3.1582912557   -3.4532040701
H        5.8770358147   -1.6057852017   -3.0353771150
H        0.0925045012   -1.0363044685   -1.6045051550
H       -0.2201282642    0.0740191257   -0.2535986467
H        0.6663865199   -1.4448826173    0.0133363476
H        1.1967498103    0.9852721320   -2.8763382357
H        2.5431629621    1.8517862283   -2.1119400725
H        0.8972751388    2.0253243086   -1.4714225117
H        2.2309675410    0.5168992832   -0.0305537659
