17   
torsion grid (-165,)
C       -0.6888806336   -0.6086302957    2.6653618238
C       -0.9810583956    0.2101172783    3.7077648601
C       -0.3968494166    0.2942148509    1.5826696054
C        0.3766905165   -1.5177816101   -0.1782396590
C       -0.7981208125    0.6894401856   -0.9183426886
C        0.6262561884    1.0587860611   -0.6323724504
C       -0.0273992720   -0.0496718169    0.1849047306
N       -0.5136716677    1.5542774171    1.9762116168
O        0.9478984847   -1.6415708708   -1.2934084565
O        0.0740850635   -2.4128838410    0.6594679958
O       -0.8924714211    1.5119906439    3.3406270505
H       -0.6489800104   -1.6838418057    2.5841509446
H       -1.2580943921    0.0341197696    4.7401849788
H       -1.5795983667    1.3712372053   -0.5921561571
H       -0.9994938501    0.1062901959   -1.8117975168
H        1.3767575026    0.7021721628   -1.3292683142
H        0.8117212119    1.9989346555   -0.1213067370
17   
torsion grid (-150,)
C       -0.7159596422   -0.6269193427    2.6357959681
C       -0.9525695690    0.1753513621    3.7044507608
C       -0.3378244031    0.2875013331    1.5899929735
C        0.4590385340   -1.5102414222   -0.1540207685
C       -0.8030156964    0.6387142900   -0.9113002131
C        0.6114730462    1.0746710084   -0.6485368404
C        0.0201140840   -0.0441123023    0.1881203871
N       -0.3558466707    1.5381836300    2.0263340069
O        1.2702512225   -1.6167883855   -1.1093077895
O       -0.0717264731   -2.4186952545    0.5449253659
O       -0.7547075322    1.4780566578    3.3853011326
H       -0.7646830465   -1.6984314807    2.5158855762
H       -1.2548578437   -0.0136326368    4.7274866043
H       -1.6108663421    1.2902174650   -0.5862875872
H       -1.0001003401    0.0370295246   -1.7943676842
H        1.3717762570    0.7392463446   -1.3456886037
H        0.7616639053    2.0345520125   -0.1634425465
17   
torsion grid (-135,)
C       -0.7775899380   -0.5976577745    2.5415026481
C       -0.9236234115    0.1504136056    3.6641355908
C       -0.3512608951    0.3499360629    1.5452565120
C        0.3787554083   -1.3955349908   -0.2470765334
C       -0.9328033026    0.7593115697   -0.9242171060
C        0.4937065365    1.2024894456   -0.7145883641
C       -0.0555883515    0.0685708306    0.1203217900
N       -0.2574042310    1.5674057745    2.0568760570
O        1.3616756293   -1.4952475193   -1.0234134750
O       -0.3279791298   -2.3036894412    0.2748290206
O       -0.6284989685    1.4513117294    3.4211939475
H       -0.9171870979   -1.6524449280    2.3578208196
H       -1.2161530129   -0.0790609327    4.6817167127
H       -1.7299967849    1.4023969693   -0.5572637253
H       -1.1728770276    0.1750560812   -1.8090172197
H        1.2325855422    0.8870440103   -1.4440173338
H        0.6585334741    2.1588670003   -0.2270944104
17   
torsion grid (-120,)
C       -0.8125627994   -0.5804878526    2.5577274543
C       -0.9028942807    0.1694827286    3.6848082689
C       -0.3492577635    0.3470053631    1.5595055345
C        0.3323292893   -1.4430644655   -0.1664566288
C       -0.9955733085    0.7032162083   -0.9005746218
C        0.4441347395    1.1411355973   -0.7449621623
C       -0.0943595835    0.0400501951    0.1336316658
N       -0.1831628168    1.5554119042    2.0715785896
O        1.4554362265   -1.5951920338   -0.7067624258
O       -0.5161015437   -2.3073754039    0.1945451752
O       -0.5431320055    1.4538957070    3.4410101629
H       -1.0134425434   -1.6261160969    2.3757614141
H       -1.1931618294   -0.0476374850    4.7057194924
H       -1.7753495632    1.3690632342   -0.5356510749
H       -1.2710117295    0.0952102676   -1.7588087484
H        1.1642512380    0.8048565346   -1.4843506122
H        0.6320116468    2.1123049409   -0.2959521926
17   
torsion grid (-105,)
C       -0.7770961151   -0.5921143680    2.5614380766
C       -0.8481992862    0.1697155296    3.6818011136
C       -0.2928802448    0.3150881878    1.5550192071
C        0.3726078509   -1.5206515868   -0.0886899577
C       -0.9763222120    0.6077400238   -0.8991577181
C        0.4710760244    1.0437172002   -0.7846890672
C       -0.0581311485   -0.0250987852    0.1343829334
N       -0.0964843781    1.5232714003    2.0542526345
O        1.5865302601   -1.7072289090   -0.3498472299
O       -0.5613581810   -2.3555329166    0.0746899237
O       -0.4579556523    1.4425016379    3.4256467462
H       -1.0061508942   -1.6349901447    2.3952722942
H       -1.1414380433   -0.0314505098    4.7050894329
H       -1.7442241799    1.2926787052   -0.5442638256
H       -1.2721808990   -0.0292085923   -1.7287640137
H        1.1758616241    0.6919804320   -1.5322327994
H        0.6741046141    2.0283960253   -0.3722267639
17   
torsion grid (-90,)
C       -0.6757151385   -0.6093948509    2.5517204462
C       -0.7918486708    0.1486671832    3.6707617784
C       -0.2608893287    0.3246559975    1.5395086368
C        0.4386049381   -1.5007788552   -0.0795560680
C       -0.9548189320    0.6052319514   -0.9094789597
C        0.4888245381    1.0583455581   -0.8091604969
C       -0.0243154335   -0.0119632045    0.1189973653
N       -0.1434901738    1.5442215790    2.0339907513
O        1.6815805415   -1.6817529369   -0.0427340920
O       -0.5012880426   -2.3356643285   -0.1898534424
O       -0.4894643345    1.4435058205    3.4082464629
H       -0.8386936072   -1.6670647185    2.4005541549
H       -1.0636710705   -0.0692283174    4.6964483342
H       -1.7252975643    1.2877652260   -0.5556580693
H       -1.2503379189   -0.0467894891   -1.7268447568
H        1.1915494688    0.7192588345   -1.5649857678
H        0.6846334943    2.0464355864   -0.4005689291
17   
torsion grid (-75,)
C       -0.0655110804   -0.4266449617    2.6587818333
C       -0.6068147839    0.2335776832    3.7131623247
C       -0.5688083506    0.2800224081    1.5106563712
C       -0.0023359999   -1.5746349808   -0.1516626226
C       -0.8696626398    0.7951178006   -0.9865629499
C        0.6055723499    0.9457775848   -0.6705112627
C       -0.2518079439   -0.0418553615    0.1023210864
N       -1.3485787579    1.2845778435    1.8711856358
O        1.1145242861   -1.9912455678    0.2658903285
O       -0.9238242872   -2.1876310732   -0.7445728149
O       -1.3756029967    1.2674398574    3.2916742532
H        0.5880898589   -1.2863640865    2.6197996183
H       -0.5506978109    0.1010958136    4.7868845660
H       -1.5352061350    1.6058933040   -0.7024470598
H       -1.1525248403    0.2428582978   -1.8776404865
H        1.3387449838    0.5142397712   -1.3468740241
H        0.9262955341    1.8504605585   -0.1569595647
17   
torsion grid (-60,)
C        0.1904670128   -0.2588362587    2.6368133483
C       -0.3461421216    0.2487399491    3.7748571907
C       -0.3751363972    0.5552746752    1.5931602208
C        0.2422987882   -1.0291059454   -0.3471580148
C       -0.8182741932    1.3575069565   -0.7997970925
C        0.6585757924    1.5547408017   -0.5366389430
C       -0.1026319780    0.4243930428    0.1439819434
N       -1.1853039447    1.4750200062    2.0907295552
O        1.2676406643   -1.5276538607    0.1981402411
O       -0.4960711967   -1.4966390225   -1.2486655549
O       -1.1706988284    1.2890667744    3.4984055117
H        0.8749072887   -1.0779919129    2.4709117470
H       -0.2525620691   -0.0062308024    4.8236331610
H       -1.5089231200    2.0841937510   -0.3813865727
H       -1.1117104921    0.8973755974   -1.7380812845
H        1.3724030304    1.2593618721   -1.3015404391
H        0.9615842192    2.3989186057    0.0798043579
17   
torsion grid (-45,)
C        0.1011957064   -0.3161834894    2.6515320473
C       -0.3865183692    0.2651325890    3.7765229559
C       -0.3853844748    0.5221780750    1.5872857505
C        0.2275755806   -1.0929542980   -0.3679897531
C       -0.8876442084    1.2612861985   -0.8100995695
C        0.5883233901    1.4781983927   -0.5920124220
C       -0.1392964073    0.3479453141    0.1357268477
N       -1.1064379027    1.5247052853    2.0647287346
O        1.0849982298   -1.6987830661    0.3353311158
O       -0.3099715469   -1.4452164969   -1.4480096742
O       -1.1098829363    1.3715700102    3.4749839273
H        0.7091940904   -1.1960544444    2.5031705486
H       -0.3163214511    0.0270123164    4.8310659206
H       -1.5734504335    1.9845827399   -0.3788249528
H       -1.1928994316    0.7759888806   -1.7313127111
H        1.2794469360    1.1750572271   -1.3743397555
H        0.8999230142    2.3327995325    0.0047133708
17   
torsion grid (-30,)
C        0.1287215892   -0.3777981003    2.6225091168
C       -0.2753928007    0.2214241284    3.7711698839
C       -0.3433975652    0.5014472402    1.5848152655
C        0.1848759328   -1.0717516965   -0.4562871248
C       -0.9694672398    1.2770763438   -0.7692862003
C        0.5088285321    1.5035641954   -0.6200725358
C       -0.1677902771    0.3430122130    0.1192537040
N       -0.9787925488    1.5428326687    2.1011968815
O        0.8523238204   -1.8263935207    0.3056598268
O       -0.1751168520   -1.2662121610   -1.6459275021
O       -0.9366810285    1.3753806470    3.5082336396
H        0.6660426575   -1.2959955033    2.4407656167
H       -0.1793760512   -0.0328574015    4.8198971646
H       -1.6395171923    1.9773080772   -0.2795080796
H       -1.3081518204    0.8150360467   -1.6903044777
H        1.1566638792    1.2209909679   -1.4451371256
H        0.8418876943    2.3428933390   -0.0140645037
17   
torsion grid (-15,)
C        0.0775016962   -0.3788512053    2.6621847867
C       -0.2786925116    0.2762862688    3.7963126754
C       -0.3069063249    0.5188409142    1.6043163930
C        0.2429741665   -1.0815522754   -0.4258673463
C       -0.9841214056    1.2178663194   -0.7607964357
C        0.4802054902    1.5071588591   -0.6251944579
C       -0.1364439093    0.3271858085    0.1404766630
N       -0.8509577282    1.6219034547    2.0977946160
O        0.6721667619   -1.9308231984    0.4041780711
O        0.1170522845   -1.1921987163   -1.6738716520
O       -0.8352593794    1.4779644487    3.5070979882
H        0.5302894356   -1.3449926192    2.5016696327
H       -0.2119319434    0.0343737006    4.8501828760
H       -1.6804416093    1.8909059802   -0.2691627762
H       -1.3068365240    0.7337683339   -1.6760331768
H        1.1278640340    1.2314062867   -1.4516305428
H        0.7785581947    2.3672827145   -0.0310738097
17   
torsion grid (0,)
C        0.3062193523   -0.7525489231    2.8144910369
C       -0.1893032251   -0.0481485856    3.8636605934
C       -0.0388994622    0.0426238009    1.6651773604
C        0.8497264863   -1.6210550249   -0.1882182478
C       -0.5645537182    0.4952866862   -0.8024247219
C        0.8325963480    0.9713532327   -0.5505089581
C        0.2872030835   -0.2265397533    0.2400184525
N       -0.6940290304    1.1354835296    2.0288043225
O        1.0060065822   -2.4806189897    0.7232354954
O        1.0877069239   -1.7259712281   -1.4207846920
O       -0.7945046324    1.0888537832    3.4410348067
H        0.8184184575   -1.7007643267    2.7662081303
H       -0.2013059168   -0.2131405471    4.9342668170
H       -1.3841515847    1.1016084357   -0.4275495054
H       -0.7342197432   -0.0748834649   -1.7095365714
H        1.5860700241    0.7191002719   -1.2893760838
H        0.9621257897    1.8974651794    0.0034762021
17   
torsion grid (15,)
C       -0.1202197170   -0.6581077193    2.6892599694
C       -0.3021515195    0.0745637043    3.8172629018
C       -0.0890704678    0.3229798975    1.6360776357
C        0.5339530882   -1.3117246503   -0.3448457697
C       -0.9524028411    0.7952562493   -0.7298132899
C        0.4590006714    1.2955085597   -0.6649761590
C        0.0656749718    0.0874973245    0.1769600820
N       -0.2425150947    1.5445671846    2.1263334235
O        0.4830623804   -2.2700215307    0.4758151344
O        0.8701657391   -1.3291461854   -1.5582009751
O       -0.3829084229    1.3964955216    3.5283553173
H       -0.0023878222   -1.7190549983    2.5321281204
H       -0.3875271027   -0.1799160183    4.8668248749
H       -1.7244772867    1.3755174870   -0.2307996827
H       -1.2498654431    0.2359702256   -1.6114165171
H        1.1048007078    1.0540756642   -1.5021349089
H        0.6428179482    2.2246406319   -0.1335215388
17   
torsion grid (30,)
C       -0.1659988799   -0.6393365336    2.6682523379
C       -0.2522405145    0.0901331721    3.8093980160
C       -0.0602481854    0.3506588184    1.6282728751
C        0.5115584885   -1.2915222149   -0.3459137446
C       -1.0192808127    0.7783151753   -0.7143552404
C        0.3835022126    1.3176812595   -0.6962163844
C        0.0461952337    0.1149747454    0.1664357474
N       -0.0851522651    1.5738768710    2.1362053831
O        0.2160863972   -2.2725566917    0.3928703320
O        1.0630304751   -1.2896306233   -1.4766259267
O       -0.2126826818    1.4181404041    3.5394133006
H       -0.1573626126   -1.7044493845    2.4942160764
H       -0.3403504146   -0.1704449580    4.8572704004
H       -1.7945935635    1.3445251494   -0.2034663780
H       -1.3367805880    0.2044004287   -1.5804207399
H        1.0158870352    1.0793070718   -1.5445835891
H        0.5544576785    2.2622954799   -0.1886700540
17   
torsion grid (45,)
C       -0.2399601424   -0.6477541714    2.6196320173
C       -0.2592661305    0.0327537039    3.7934092230
C       -0.0742719848    0.3795840787    1.6248215760
C        0.4973375654   -1.2050500601   -0.3672194722
C       -1.1001148436    0.8288712685   -0.6890699255
C        0.2915842792    1.4096829404   -0.6885860724
C        0.0010597726    0.1897131152    0.1566587010
N       -0.0045485374    1.5769123214    2.1854770520
O       -0.0132354841   -2.2029486103    0.2161892799
O        1.2790096239   -1.1704017006   -1.3505236059
O       -0.1281417169    1.3658019521    3.5829526310
H       -0.3127114307   -1.7020906194    2.3984128234
H       -0.3533340685   -0.2684049204    4.8298277994
H       -1.8829256174    1.3679617572   -0.1596948976
H       -1.4260203396    0.2600496408   -1.5561239757
H        0.9221207916    1.2034693548   -1.5471702655
H        0.4436910297    2.3560007834   -0.1779648784
17   
torsion grid (60,)
C       -0.5570141653   -0.6262414032    2.5988470848
C       -0.4002759501   -0.0256168549    3.8053351522
C       -0.3461209228    0.4367168603    1.6516203853
C       -0.0506448521   -1.1009995485   -0.3991427383
C       -1.5320484764    1.0588650672   -0.5429476190
C       -0.1007778627    1.5366511328   -0.6501932444
C       -0.4146670567    0.3156372462    0.1777544352
N       -0.0860048067    1.5789928610    2.2661584841
O       -0.7971614830   -2.0332654610    0.0140799027
O        0.8882843435   -1.1330471184   -1.2323172653
O       -0.1235338005    1.2933429549    3.6564916048
H       -0.7808513524   -1.6488562440    2.3321769449
H       -0.4479727401   -0.3795590539    4.8281329718
H       -2.2222442688    1.6406429639    0.0650122250
H       -1.9799419298    0.5461073415   -1.3904896513
H        0.4419930587    1.3223491158   -1.5654088344
H        0.1664245765    2.4538612657   -0.1329389094
17   
torsion grid (75,)
C       -0.8745568199   -0.7625915212    2.5442066855
C       -1.1333666250   -0.0404328643    3.6632338516
C       -0.2369919557    0.1790454689    1.6623904803
C        0.7136801373   -1.5998433850    0.0955721454
C       -0.5176847519    0.5353263930   -0.8618940749
C        0.8848348172    0.9849957757   -0.5019972141
C        0.2291643928   -0.1154404637    0.2899253193
N       -0.1330767442    1.3691473417    2.2281420388
O       -0.2235565697   -2.4440640682    0.0311435288
O        1.9558582494   -1.7628883025    0.0126572786
O       -0.7131586860    1.2402111181    3.5188025944
H       -1.0678162003   -1.7993916185    2.3086013381
H       -1.5900880508   -0.2770354990    4.6166483525
H       -1.3439349898    1.2015416046   -0.6199657161
H       -0.6656573424   -0.0820579331   -1.7440505833
H        1.7077248591    0.6616674468   -1.1323439212
H        1.0015625785    1.9597028753   -0.0358741032
17   
torsion grid (90,)
C       -0.2427139330   -0.6979084444    2.7281698299
C       -0.9117328525   -0.0625188690    3.7226568910
C       -0.5195445770    0.0946714382    1.5601736048
C        0.2855542361   -1.7012061050   -0.0417871823
C       -0.4220012464    0.7028785667   -0.9375914356
C        0.9801783686    0.8422379038   -0.3764960175
C        0.0152397216   -0.1730511558    0.2075945688
N       -1.2971348801    1.1220656011    1.8523235957
O       -0.6825783923   -2.3430168120   -0.5211420465
O        1.4226660758   -2.1031296113    0.3296018571
O       -1.5513929832    1.0337783367    3.2473827239
H        0.3640047788   -1.5920832552    2.7503530391
H       -1.0352825865   -0.2538441808    4.7816939620
H       -1.1320405545    1.5009905684   -0.7365318825
H       -0.5508498594    0.1936789703   -1.8884946467
H        1.8171874089    0.4292988224   -0.9327965926
H        1.2044331612    1.7306473448    0.2110511067
17   
torsion grid (105,)
C       -0.2124262742   -0.6773944400    2.7516148940
C       -0.8942998237   -0.0412578886    3.7370600152
C       -0.5124958942    0.0889259125    1.5713693542
C        0.2893453146   -1.7073395282   -0.0551791864
C       -0.4396566567    0.6979832595   -0.9213349053
C        0.9721930686    0.8282460562   -0.3853431460
C        0.0090617681   -0.1840293657    0.2139879027
N       -1.3127891220    1.1034719438    1.8505657695
O       -0.5432144619   -2.2972715800   -0.7870583153
O        1.3029157601   -2.1584582850    0.5490373163
O       -1.5617836000    1.0321759405    3.2471588872
H        0.4179752027   -1.5547006795    2.7758727001
H       -1.0099397395   -0.2172802210    4.7996900672
H       -1.1398085267    1.5011991754   -0.7078321629
H       -0.5873897045    0.1822442710   -1.8654765916
H        1.7969870320    0.4191618191   -0.9631801541
H        1.2135871384    1.7102811502    0.2050133165
17   
torsion grid (120,)
C       -0.2198235155   -0.6869852425    2.7585527723
C       -0.8853766259   -0.0343721554    3.7444499062
C       -0.5106133463    0.0808690730    1.5764943878
C        0.2761171437   -1.7095551932   -0.1044361283
C       -0.4711188613    0.7022115494   -0.9096077085
C        0.9506723628    0.8130987554   -0.4046039318
C       -0.0114169189   -0.1963317304    0.2103971707
N       -1.2919136420    1.1110584029    1.8565719838
O       -0.3802318445   -2.2102858216   -1.0505465761
O        1.1320235573   -2.2420687658    0.6577523768
O       -1.5353408847    1.0497867464    3.2538194556
H        0.3928703056   -1.5764333684    2.7756790636
H       -0.9987250985   -0.2038887355    4.8084390387
H       -1.1569082215    1.5107682287   -0.6727993138
H       -0.6414477549    0.1860900346   -1.8492872086
H        1.7568146869    0.4029926824   -1.0079542454
H        1.2155674624    1.6838562470    0.1921294283
17   
torsion grid (135,)
C       -0.2798161136   -0.7163845874    2.7633743123
C       -0.9130962511   -0.0178600484    3.7392027490
C       -0.5222242563    0.0535576604    1.5714674372
C        0.2646142811   -1.7566825090   -0.1302463234
C       -0.5186511935    0.6402835492   -0.9193042195
C        0.9085990333    0.7548357677   -0.4446208628
C       -0.0418438889   -0.2525385736    0.2030767237
N       -1.2467046940    1.1287874323    1.8393900178
O       -0.1731658497   -2.1722536385   -1.2322435403
O        0.9330423637   -2.3681153590    0.7506239510
O       -1.4997603796    1.0956839793    3.2348945227
H        0.2818600553   -1.6381683143    2.7886933304
H       -1.0401962667   -0.1701412156    4.8042681909
H       -1.1995393250    1.4491736630   -0.6711620131
H       -0.7000816270    0.1106447793   -1.8488673382
H        1.6991211309    0.3373440319   -1.0632098503
H        1.1858500027    1.6266081365    0.1443241729
17   
torsion grid (150,)
C       -0.3450023691   -0.7302520889    2.7957785687
C       -0.9416820971    0.0285487930    3.7496729858
C       -0.5103632730    0.0346311982    1.5873471298
C        0.3089452341   -1.8130647322   -0.0926984168
C       -0.5389181568    0.5428210293   -0.9176333265
C        0.8856285936    0.6993135687   -0.4630639480
C       -0.0335507295   -0.3161818119    0.2261584652
N       -1.1599598912    1.1637763808    1.8279516566
O        0.1313052652   -2.1593221721   -1.2887162633
O        0.7513396103   -2.4924724798    0.8758822342
O       -1.4389217012    1.1722021573    3.2178029085
H        0.1465982326   -1.6898855281    2.8435516449
H       -1.0963363913   -0.0964974065    4.8146343861
H       -1.2362872903    1.3386026562   -0.6735391195
H       -0.7094796397   -0.0125528666   -1.8336365068
H        1.6724677978    0.2787800958   -1.0833649296
H        1.1495693962    1.5881715879    0.1053440218
17   
torsion grid (165,)
C       -0.3724733234   -0.7148296636    2.8108178909
C       -0.9387552021    0.0761471825    3.7572894810
C       -0.4879890837    0.0531383721    1.5985112237
C        0.3665582705   -1.8001904539   -0.0786621024
C       -0.5461023090    0.5192505873   -0.9150536353
C        0.8692400706    0.7282282983   -0.4671571549
C       -0.0093768932   -0.3146779590    0.2408598813
N       -1.0831650964    1.2139399462    1.8314495338
O        0.4709079842   -2.0599840153   -1.3061528270
O        0.5469882204   -2.5641530838    0.9104543445
O       -1.3745781921    1.2409423987    3.2177615850
H        0.0624159864   -1.7009245086    2.8633158369
H       -1.1098638700   -0.0382928399    4.8208956056
H       -1.2734307944    1.2874192288   -0.6697007431
H       -0.6937621769   -0.0461349287   -1.8286080586
H        1.6621075081    0.3201672994   -1.0866782722
H        1.1015873215    1.6297603551    0.0943644307
17   
torsion grid (180,)
C       -0.7324876192   -1.0260253085    2.8244428441
C       -0.9438519618   -0.1148510555    3.8080542446
C       -0.3881263747   -0.2280770977    1.6768072414
C        0.1572072356   -2.2156579175    0.0200499848
C       -0.8060464001    0.0662339682   -0.8263293446
C        0.6601140524    0.2769746384   -0.6071567118
C       -0.0913320760   -0.6972649173    0.2979579383
N       -0.3973123831    1.0616403477    1.9804398221
O        0.3985032753   -2.4879724415   -1.1859843291
O        0.0897931599   -2.9977076605    1.0088997793
O       -0.7560504622    1.1465092331    3.3482676868
H       -0.7617812715   -2.1044048014    2.8284098369
H       -1.2166563504   -0.1948655020    4.8533979715
H       -1.4846310073    0.8573878769   -0.5182218932
H       -1.1014808034   -0.5462313224   -1.6719212794
H        1.3353181591   -0.2016962855   -1.3083216969
H        0.9800399041    1.2127315171   -0.1578566207
