21   
torsion grid (-165,)
C       -3.4010552802   -2.8158580289   -0.2295664292
C       -2.3632684856   -0.7273228932   -0.8576912980
C       -2.2142025944   -3.1153349609    0.4398978430
C       -3.4548450346   -1.5862468525   -0.8869371608
C       -1.2137812981   -1.1204761287   -0.1439779395
C        0.1859147005    0.8826752901   -1.0467171994
C       -0.2162158564    1.2040767283    0.3686259135
C        0.0029641171   -0.2497154349   -0.0475869126
C        1.2645754309   -0.9404743198    0.4397414782
N       -1.1492101618   -2.3059736304    0.4882067308
Cl      -4.9028525243   -1.1250590177   -1.7607876229
H       -4.2372600898   -3.5064756642   -0.2398316617
H       -2.4162774092    0.2252092096   -1.3715761267
H       -2.1176701212   -4.0642391355    0.9657902515
H       -0.5415881738    1.0163920684   -1.8406097053
H        1.2073649349    1.0948903481   -1.3483136338
H        0.5219694362    1.6450203225    1.0326375128
H       -1.2383378314    1.5225957241    0.5513611834
H        2.0960711224   -0.2289249994    0.4667808906
H        1.5375878741   -1.7650502262   -0.2260094096
H        1.1278570389   -1.3558330412    1.4409470636
21   
torsion grid (-150,)
C       -3.3972407338   -2.7818334700   -0.1867425093
C       -2.2675814716   -0.8220772028   -1.0347494860
C       -2.2772533992   -2.9807416790    0.6237912436
C       -3.3696522144   -1.6714595291   -1.0287399361
C       -1.1968639531   -1.1022925645   -0.1671389949
C        0.1487304312    1.0024151219   -0.9521834481
C       -0.1930819531    1.1717740914    0.5078474694
C        0.0182374169   -0.2255174665   -0.0720262182
C        1.3042288277   -0.9467468214    0.2987179218
N       -1.2085765926   -2.1777935109    0.6430491023
Cl      -4.7227883299   -1.3475591220   -2.0946771270
H       -4.2416785723   -3.4621451806   -0.1647555087
H       -2.2494080765    0.0297157913   -1.7030654129
H       -2.2441963111   -3.8386553479    1.2941163064
H       -0.6133943630    1.2328846171   -1.6887376077
H        1.1546191743    1.2563123523   -1.2733470060
H        0.5674512603    1.5503353423    1.1852554826
H       -1.2098971568    1.4592848541    0.7585805803
H        2.1325091332   -0.2342530090    0.3661468896
H        1.5597853427   -1.6960085342   -0.4583020783
H        1.2033035354   -1.4591512893    1.2576043330
21   
torsion grid (-135,)
C       -3.3850691509   -2.7662404676   -0.1543820675
C       -2.1664485097   -0.9369368248   -1.1552951409
C       -2.3456428682   -2.8467020234    0.7775940027
C       -3.2718551265   -1.7847679184   -1.1359766448
C       -1.1862504705   -1.0905702509   -0.1623592887
C        0.0829608839    1.0906568933   -0.8583782082
C       -0.1603101013    1.1302337634    0.6342027116
C        0.0235944154   -0.2039804291   -0.0771527442
C        1.3303768065   -0.9445776314    0.1637378696
N       -1.2786825041   -2.0430636849    0.7860839171
Cl      -4.5163449982   -1.6195756037   -2.3586361827
H       -4.2335114402   -3.4409061169   -0.1157901311
H       -2.0681074839   -0.1894034911   -1.9327519248
H       -2.3830894969   -3.6039523367    1.5596879433
H       -0.7379741085    1.3743205846   -1.5086516746
H        1.0588202687    1.3933835260   -1.2269194572
H        0.6410818636    1.4610984463    1.2890977471
H       -1.1594531545    1.3869602319    0.9734440530
H        2.1582225788   -0.2364957866    0.2715649411
H        1.5608819680   -1.6097156860   -0.6761801741
H        1.2663273595   -1.5494532785    1.0710799291
21   
torsion grid (-120,)
C       -3.3771450279   -2.7593566215   -0.1414021850
C       -2.0751019315   -1.0396653144   -1.2241043649
C       -2.4312002132   -2.7217191446    0.8887884273
C       -3.1759345332   -1.8946247242   -1.2142791863
C       -1.1954715128   -1.0698182700   -0.1323392181
C        0.0131485878    1.1530289533   -0.7686291351
C       -0.1133403084    1.0969841238    0.7407904010
C        0.0160217756   -0.1840136560   -0.0619194373
C        1.3290723542   -0.9465116253    0.0350698015
N       -1.3710399779   -1.9091068837    0.9064289946
Cl      -4.3011300977   -1.8840605057   -2.5574736772
H       -4.2247011229   -3.4353506410   -0.1050266500
H       -1.8993320622   -0.3770214175   -2.0633883474
H       -2.5430728128   -3.3857809823    1.7449144690
H       -0.8642764253    1.4599417688   -1.3296306528
H        0.9528894637    1.4931545573   -1.1945191514
H        0.7371571999    1.3942967290    1.3480602037
H       -1.0819071125    1.3287798549    1.1735469137
H        2.1714452328   -0.2542731254    0.1341962748
H        1.4947580081   -1.5553722794   -0.8611479599
H        1.3192401486   -1.6093116353    0.9046340152
21   
torsion grid (-105,)
C       -3.3711397659   -2.7526583096   -0.1320005642
C       -1.9793888670   -1.1414065766   -1.2673280284
C       -2.5303786715   -2.5902810535    0.9739666581
C       -3.0723776938   -2.0055927621   -1.2695211377
C       -1.2082507457   -1.0448166414   -0.0999786479
C       -0.0516294358    1.2107316252   -0.6755311325
C       -0.0601594532    1.0641913761    0.8352445224
C        0.0071821152   -0.1628989377   -0.0441368603
C        1.3165679405   -0.9362288487   -0.0990803576
N       -1.4777313063   -1.7662907810    1.0034470018
Cl      -4.0684393010   -2.1528283102   -2.7033094775
H       -4.2167072252   -3.4315682495   -0.1024697712
H       -1.7266190219   -0.5585945062   -2.1462443728
H       -2.7239365679   -3.1571393262    1.8836443584
H       -0.9750046839    1.5306010677   -1.1500868951
H        0.8498499236    1.5855318536   -1.1525128986
H        0.8349415917    1.3358897744    1.3879579912
H       -0.9910929263    1.2625365302    1.3576123837
H        2.1718359179   -0.2561865167   -0.0282124787
H        1.4039462152   -1.4944598005   -1.0383307607
H        1.3720904556   -1.6477399691    0.7306711484
21   
torsion grid (-90,)
C       -3.3841503287   -2.7257823302   -0.1288592046
C       -1.8735848971   -1.2506772447   -1.2942298032
C       -2.6567553587   -2.4373229196    1.0291959300
C       -2.9682645333   -2.1103704930   -1.3090924915
C       -1.2162145549   -1.0267758153   -0.0745818202
C       -0.1034454534    1.2615926473   -0.5649902187
C       -0.0002045082    1.0131648811    0.9295763887
C        0.0045536761   -0.1507644610   -0.0276203427
C        1.3040622986   -0.9139405318   -0.2401294586
N       -1.6004021988   -1.6157519772    1.0706776530
Cl      -3.8238454362   -2.4164811923   -2.8070451698
H       -4.2356320710   -3.3976136302   -0.1071399322
H       -1.5340608293   -0.7580226479   -2.1993920841
H       -2.9465560405   -2.8957625945    1.9736241872
H       -1.0622862196    1.5951410322   -0.9523458303
H        0.7591843490    1.6741783187   -1.0814636223
H        0.9324833745    1.2584489843    1.4299820366
H       -0.8895827103    1.1646991718    1.5331254611
H        2.1635816205   -0.2375449342   -0.1876120589
H        1.3179321529   -1.4048549397   -1.2200196664
H        1.4263609401   -1.6830386352    0.5298079638
21   
torsion grid (-75,)
C       -3.4169386935   -2.7518888550   -0.1642223363
C       -1.7771542974   -1.4196041955   -1.3255872502
C       -2.8191441159   -2.3224776595    1.0223652508
C       -2.8698962100   -2.2788054578   -1.3579245668
C       -1.2479922719   -1.0542630949   -0.0761748743
C       -0.2232187363    1.2928343629   -0.4289168345
C       -0.0106635730    0.9207409174    1.0268535460
C       -0.0410920600   -0.1583902720   -0.0223875052
C        1.2621754275   -0.8566259818   -0.3843507559
N       -1.7632327293   -1.4990799763    1.0809244025
Cl      -3.5638626043   -2.7613266110   -2.8927387681
H       -4.2713994913   -3.4202166848   -0.1557705301
H       -1.3430810060   -1.0299231441   -2.2407960850
H       -3.2155426153   -2.6627652650    1.9778890412
H       -1.2164602020    1.6195921064   -0.7245442125
H        0.5894315108    1.7734335903   -0.9675637324
H        0.9490398585    1.1532992847    1.4800021885
H       -0.8583195274    0.9869187379    1.7007152329
H        2.1021208211   -0.1560193729   -0.3350700537
H        1.2269499873   -1.2694938725   -1.3990206100
H        1.4639534436   -1.6793314111    0.3102104480
21   
torsion grid (-60,)
C       -3.4607476931   -2.6760887933   -0.1417535175
C       -1.6653968952   -1.5619573957   -1.3047567780
C       -2.9562084349   -2.1080442951    1.0286733760
C       -2.7865192142   -2.3825392514   -1.3285878083
C       -1.2310855272   -1.0515491654   -0.0678916359
C       -0.2495883454    1.3213586778   -0.2885467266
C        0.0854007118    0.8298432735    1.1044973682
C       -0.0197287583   -0.1603679082   -0.0264273363
C        1.2630516146   -0.7955452708   -0.5433305907
N       -1.8740699741   -1.3184703417    1.0796035423
Cl      -3.3608819516   -3.0404294338   -2.8478570239
H       -4.3394151571   -3.3120805352   -0.1282223219
H       -1.1410128994   -1.3117327726   -2.2209602464
H       -3.4525417460   -2.3022465508    1.9783640760
H       -1.2674156253    1.6514849198   -0.4763189240
H        0.5116641049    1.8544888116   -0.8524730657
H        1.0780982606    1.0377803081    1.4939495789
H       -0.7050772150    0.8206336231    1.8464465581
H        2.0929641762   -0.0841033855   -0.4860668830
H        1.1719331469   -1.1141192367   -1.5876887670
H        1.5277933443   -1.6735837937    0.0559310005
21   
torsion grid (-45,)
C       -3.4851091238   -2.6639438901   -0.1561238998
C       -1.5486946650   -1.7515780116   -1.2704855066
C       -3.0861205616   -1.9377020783    0.9668701033
C       -2.6847051758   -2.5521556264   -1.2937775632
C       -1.2239076130   -1.0754566911   -0.0796077683
C       -0.3054581553    1.3242795552   -0.1576565414
C        0.1310055469    0.7330936335    1.1622011338
C       -0.0246802566   -0.1704253233   -0.0395165122
C        1.2452149815   -0.7142938064   -0.6765529266
N       -1.9936209415   -1.1651748494    1.0178596691
Cl      -3.1179610337   -3.4143381954   -2.7568953495
H       -4.3768454973   -3.2813509046   -0.1439091219
H       -0.9313032410   -1.6504832804   -2.1557695300
H       -3.6818276828   -1.9849148544    1.8773964686
H       -1.3423930145    1.6331566945   -0.2525434366
H        0.4024479878    1.9200866844   -0.7282949886
H        1.1447381232    0.9306658023    1.4988993984
H       -0.6108621965    0.6440266657    1.9468826854
H        2.0698506135   -0.0078564349   -0.5416406943
H        1.1356346810   -0.8805832886   -1.7538859253
H        1.5359029557   -1.6639075138   -0.2142815274
21   
torsion grid (-30,)
C       -3.5197443591   -2.6112010652   -0.1759980987
C       -1.4660561855   -1.8838792494   -1.2186421102
C       -3.1988514556   -1.7514278120    0.8768940859
C       -2.6194972636   -2.6613485778   -1.2394094895
C       -1.2260097346   -1.0650508980   -0.0999087302
C       -0.3197006980    1.3339678205   -0.0027240021
C        0.2057083421    0.6232562993    1.2172087984
C       -0.0278585567   -0.1639676870   -0.0590756789
C        1.2042268699   -0.6250677992   -0.8199636185
N       -2.0948943074   -0.9990600960    0.9255930417
Cl      -2.9444249619   -3.7015061784   -2.6122112681
H       -4.4262392232   -3.2065867629   -0.1653372830
H       -0.7714424052   -1.9188220805   -2.0492071510
H       -3.8731010969   -1.6692316112    1.7283611067
H       -1.3634302178    1.6329584502    0.0025436040
H        0.3455536134    1.9880419108   -0.5603954817
H        1.2407399803    0.7900164447    1.5014973151
H       -0.4860881021    0.4536636472    2.0336072545
H        2.0370467257    0.0615564833   -0.6425754713
H        1.0407738148   -0.6559044154   -1.9031922141
H        1.5168564357   -1.6228538794   -0.4928999620
21   
torsion grid (-15,)
C       -3.4974033712   -2.6231542136   -0.1686565462
C       -1.3630907471   -2.0095822044   -1.1205201554
C       -3.2669954537   -1.6318106302    0.7895672946
C       -2.5105803157   -2.7979243564   -1.1364483634
C       -1.2226337832   -1.0478235274   -0.1043180388
C       -0.3294208343    1.3444111458    0.1394215460
C        0.2544149644    0.5453245134    1.2712768908
C       -0.0329020206   -0.1410287572   -0.0567901252
C        1.1631049697   -0.5170150538   -0.9126649376
N       -2.1748121843   -0.8648740010    0.8313849439
Cl      -2.7132545107   -4.0122943859   -2.3840599940
H       -4.4007266342   -3.2232215330   -0.1573707760
H       -0.6001696456   -2.1476648146   -1.8764961385
H       -4.0099906802   -1.4515669269    1.5654183837
H       -1.3743270286    1.6267754603    0.2173871479
H        0.3072092711    2.0458693190   -0.3930700745
H        1.3004724314    0.6937037175    1.5238904343
H       -0.4026837538    0.3041412888    2.0989360234
H        1.9864238293    0.1816785054   -0.7390374010
H        0.9318624429   -0.4826014665   -1.9836430206
H        1.5250707249   -1.5228770729   -0.6714252809
21   
torsion grid (0,)
C       -3.5253409461   -2.5895102719   -0.1981772292
C       -1.3220293246   -2.0855674964   -1.0543570010
C       -3.3560397596   -1.4990351751    0.6605918341
C       -2.4725718228   -2.8703095567   -1.0657897394
C       -1.2525336918   -1.0109302875   -0.1507026892
C       -0.3000602537    1.3375969767    0.2583316347
C        0.3082451060    0.4309801780    1.2904054054
C       -0.0477411775   -0.1273896270   -0.0842743399
C        1.0977602522   -0.4354016679   -1.0302862017
N       -2.2655605262   -0.7302429030    0.6934041970
Cl      -2.5922560273   -4.2180631963   -2.1799693986
H       -4.4319801705   -3.1845161478   -0.1865187553
H       -0.5072509019   -2.3090105331   -1.7314728481
H       -4.1497860578   -1.2368984251    1.3589986868
H       -1.3334630855    1.6324077140    0.4051755474
H        0.3345045926    2.0693567069   -0.2339218436
H        1.3662846503    0.5312305962    1.5160209096
H       -0.3245463443    0.1274734091    2.1173254430
H        1.9124908988    0.2789419335   -0.8817756611
H        0.7877476174   -0.3642716246   -2.0792841906
H        1.5066608907   -1.4379434251   -0.8592807707
21   
torsion grid (15,)
C       -3.5394772426   -2.5604595468   -0.2399805187
C       -1.2756467463   -2.1399793575   -0.9721386647
C       -3.4328920745   -1.3844534970    0.5081489973
C       -2.4234100363   -2.9279162814   -0.9885471631
C       -1.2762466216   -0.9679059467   -0.1952142305
C       -0.2696273972    1.3267330214    0.3822048877
C        0.3579931795    0.3195665790    1.3053532289
C       -0.0597467552   -0.1010221152   -0.1023530551
C        1.0362753888   -0.3280231641   -1.1277905683
N       -2.3471803621   -0.6078776428    0.5390389754
Cl      -2.4593988191   -4.3907830894   -1.9534480294
H       -4.4462393332   -3.1554001662   -0.2345168892
H       -0.4099392269   -2.4313019459   -1.5537727022
H       -4.2756543719   -1.0554606868    1.1147691546
H       -1.2894306438    1.6264760620    0.5946275814
H        0.3655329007    2.0877657910   -0.0621764999
H        1.4249323731    0.3793928370    1.5026899936
H       -0.2496777285   -0.0500235862    2.1249715480
H        1.8347135246    0.4077877164   -0.9964452707
H        0.6536836945   -0.2237015180   -2.1494143780
H        1.4931883872   -1.3197915430   -1.0314690446
21   
torsion grid (30,)
C       -3.5007679216   -2.6409847349   -0.1043990139
C       -1.2898784849   -2.2239098779    0.7736068604
C       -3.3325402096   -1.4822816702   -0.8659180734
C       -2.4431095973   -3.0007238338    0.7297241588
C       -1.2129468700   -1.0852472948   -0.0493221966
C        0.0284735892    0.9757111886   -0.9695191895
C       -0.2775932182    1.2449095088    0.4807207052
C       -0.0158216350   -0.1837948583    0.0085460184
C        1.3110182258   -0.8270806352    0.3763438336
N       -2.2331942460   -0.7218277841   -0.8480916058
Cl      -2.5682213552   -4.4322633195    1.7333102888
H       -4.4111595040   -3.2279334838   -0.1592186924
H       -0.4718576613   -2.5011374797    1.4274738936
H       -4.1324583095   -1.1532978926   -1.5279375211
H       -0.7890500266    1.0551920585   -1.6760607549
H        1.0081201931    1.2546447702   -1.3468826114
H        0.4837730075    1.7060323165    1.1044683708
H       -1.3013531994    1.4991986458    0.7376560165
H        2.1209583320   -0.0964448027    0.2947161226
H        1.5426373905   -1.6607550290   -0.2956819623
H        1.3231309486   -1.2039106928    1.4053952074
21   
torsion grid (45,)
C       -3.4709946095   -2.6836273248   -0.1454108216
C       -1.3596470530   -2.1180326604    0.8776937049
C       -3.2401457233   -1.6264487765   -1.0267749648
C       -2.4960057573   -2.9167393194    0.8253849825
C       -1.2141754464   -1.0889164449   -0.0713104379
C       -0.0339810365    1.0592486789   -0.8715250716
C       -0.2389297032    1.1868979760    0.6196822325
C       -0.0159395396   -0.1837518938   -0.0117049773
C        1.3265866559   -0.8647575430    0.2075675540
N       -2.1518922787   -0.8467114520   -1.0024227661
Cl      -2.7094304198   -4.2119830917    1.9866540558
H       -4.3675932648   -3.2905073010   -0.2113223722
H       -0.6060164435   -2.2863210459    1.6385240384
H       -3.9751404632   -1.3984529404   -1.7974572812
H       -0.8940936635    1.2028663443   -1.5146751706
H        0.9168768487    1.3832224836   -1.2849853337
H        0.5652530843    1.5905456497    1.2296954688
H       -1.2396860060    1.4192998271    0.9719525690
H        2.1352388865   -0.1283501741    0.1749897352
H        1.5168643746   -1.6090234183   -0.5733392979
H        1.3875724617   -1.3683071747    1.1786664749
21   
torsion grid (60,)
C       -3.4503296067   -2.6877150337   -0.1673983541
C       -1.4662732367   -1.9499504228    0.9886871874
C       -3.1259123335   -1.7629230061   -1.1606986729
C       -2.5883475078   -2.7673328449    0.9280371293
C       -1.2231614590   -1.0607033545   -0.0739106671
C       -0.0666768208    1.1326535893   -0.7802891648
C       -0.1631245577    1.1462539687    0.7312936064
C       -0.0132163260   -0.1681684666   -0.0216214163
C        1.3202637343   -0.8975777159    0.0554929899
N       -2.0473807721   -0.9674280265   -1.1290804373
Cl      -2.9280414639   -3.8901117642    2.2299042932
H       -4.3347079217   -3.3113521581   -0.2427544295
H       -0.7964616367   -1.9889588986    1.8412411209
H       -3.7720580874   -1.6593852272   -2.0311862904
H       -0.9655156869    1.3369736257   -1.3510509832
H        0.8557036978    1.4819689847   -1.2358694512
H        0.6908529911    1.4941760627    1.3069832296
H       -1.1297763519    1.3702606031    1.1735813855
H        2.1469604379   -0.1813002324    0.0967568238
H        1.4651296123   -1.5314462506   -0.8261989797
H        1.3895396335   -1.5342315341    0.9445070545
21   
torsion grid (75,)
C       -3.4033042355   -2.7514913489   -0.1883942948
C       -1.5632247941   -1.8224906935    1.0625544714
C       -2.9892999308   -1.9493501667   -1.2536440962
C       -2.6607576914   -2.6730893085    0.9908361188
C       -1.2285522652   -1.0626878758   -0.0711552373
C       -0.1289425920    1.1920002087   -0.6649645671
C       -0.0972646307    1.0724272230    0.8475841281
C       -0.0212058433   -0.1667287735   -0.0261974745
C        1.3032459239   -0.9111498774   -0.1187905416
N       -1.9332294849   -1.1250028689   -1.2120484820
Cl      -3.1160864015   -3.6395656162    2.3795753228
H       -4.2666652519   -3.4026509901   -0.2746418777
H       -0.9789825247   -1.7365387864    1.9731179001
H       -3.5414900242   -1.9744814993   -2.1919477029
H       -1.0711829709    1.4478597174   -1.1379975120
H        0.7517879590    1.5834601358   -1.1665028623
H        0.8042905445    1.3752525974    1.3739248860
H       -1.0209672651    1.2621992281    1.3873747665
H        2.1438408499   -0.2114006902   -0.0682342347
H        1.3720469996   -1.4580176225   -1.0654674807
H        1.4154640686   -1.6321286792    0.6989914717
21   
torsion grid (90,)
C       -3.3786538333   -2.7280128133   -0.2070025042
C       -1.6668170471   -1.6568880694    1.1113619403
C       -2.8389267903   -2.0658910230   -1.3131847101
C       -2.7651243528   -2.5077613706    1.0258027405
C       -1.2075886480   -1.0383606272   -0.0618359628
C       -0.1192737366    1.2484478327   -0.5452715376
C        0.0228169489    1.0067818478    0.9473000640
C        0.0105990440   -0.1583641869   -0.0207731704
C        1.3086532245   -0.9123554886   -0.2714485802
N       -1.7835796037   -1.2437299964   -1.2585535350
Cl      -3.3774767863   -3.2983039813    2.4644236830
H       -4.2383581513   -3.3822486087   -0.3056933598
H       -1.1754579803   -1.4677445420    2.0600975588
H       -3.2865983109   -2.2086585186   -2.2956825849
H       -1.0895947999    1.5580576219   -0.9205244671
H        0.7275095598    1.6663529236   -1.0826529567
H        0.9661209766    1.2590163047    1.4244460570
H       -0.8539735911    1.1724490721    1.5673638725
H        2.1651701835   -0.2309359090   -0.2382130206
H        1.2893669028   -1.3899694850   -1.2567298075
H        1.4651532533   -1.6911350788    0.4837845161
21   
torsion grid (105,)
C       -3.3660542459   -2.7541927970   -0.2150894875
C       -1.7731936246   -1.5478813217    1.1375764783
C       -2.7089199849   -2.2249979220   -1.3306783612
C       -2.8719942140   -2.3988974489    1.0382981649
C       -1.1961477976   -1.0634968770   -0.0452488100
C       -0.1622721819    1.2653009443   -0.4308103274
C        0.0907523685    0.9244265245    1.0264960174
C        0.0153696359   -0.1751638900   -0.0099424454
C        1.2980484171   -0.8881136942   -0.4124395369
N       -1.6552421643   -1.4045670251   -1.2632829524
Cl      -3.6297221283   -3.0223364719    2.4897583278
H       -4.2213609528   -3.4124367634   -0.3243570495
H       -1.3696889865   -1.2674373490    2.1043192510
H       -3.0585449417   -2.4788410992   -2.3304946392
H       -1.1596765122    1.5926653028   -0.7080581614
H        0.6393081787    1.7239722004   -1.0031794622
H        1.0654514377    1.1538075057    1.4483938279
H       -0.7371864912    1.0504719323    1.7184282965
H        2.1468949133   -0.1965766039   -0.3983202672
H        1.2035250703   -1.2974399315   -1.4230484475
H        1.5210080933   -1.7129486171    0.2741360035
21   
torsion grid (120,)
C       -3.3706811372   -2.7636833572   -0.2074815500
C       -1.8720831175   -1.4404956375    1.1447880419
C       -2.6006171045   -2.3736883470   -1.3085793544
C       -2.9803329208   -2.2791525831    1.0383805835
C       -1.1789224538   -1.0971306760   -0.0249275139
C       -0.1989276918    1.2647977448   -0.3237121755
C        0.1681070959    0.8420798767    1.0848626808
C        0.0264668938   -0.2005789256   -0.0013857139
C        1.2887510346   -0.8549141123   -0.5430427535
N       -1.5378837480   -1.5676079001   -1.2349145075
Cl      -3.8761936844   -2.7279977972    2.4758422969
H       -4.2289765731   -3.4170434180   -0.3219120988
H       -1.5489812481   -1.0740517931    2.1121123417
H       -2.8633859833   -2.7342890355   -2.3022414124
H       -1.2183692171    1.5942531486   -0.5007039430
H        0.5505728571    1.7637998554   -0.9317943727
H        1.1715663824    1.0560417987    1.4418920726
H       -0.6010170247    0.9296721415    1.8461567851
H        2.1206832245   -0.1432529046   -0.5493039297
H        1.1245582125   -1.2071889903   -1.5650444058
H        1.5808542881   -1.7119092358    0.0746978200
21   
torsion grid (135,)
C       -3.3765246293   -2.7745502672   -0.1962655282
C       -1.9707753865   -1.3238784917    1.1276024333
C       -2.5013446913   -2.5250532486   -1.2579956144
C       -3.0848851225   -2.1529033168    1.0154006363
C       -1.1655162473   -1.1260499798   -0.0049776714
C       -0.2274704250    1.2611481982   -0.2060278475
C        0.2498737677    0.7564362414    1.1378260094
C        0.0359050930   -0.2241092154    0.0052784658
C        1.2695635327   -0.8121451841   -0.6629215155
N       -1.4306632332   -1.7301795727   -1.1797355380
Cl      -4.1140446570   -2.4203066070    2.4083353748
H       -4.2360104262   -3.4259786006   -0.3122061363
H       -1.7319367754   -0.8595340734    2.0764207854
H       -2.6810587092   -2.9953976819   -2.2239045736
H       -1.2615746943    1.5836596766   -0.2827968966
H        0.4667579296    1.8056791711   -0.8401565407
H        1.2789423530    0.9541765967    1.4236316363
H       -0.4497986570    0.7952382894    1.9662023194
H        2.0861476853   -0.0831215558   -0.6699395800
H        1.0472178858   -1.0990454742   -1.6932106156
H        1.6153134164   -1.7027586238   -0.1260144660
21   
torsion grid (150,)
C       -3.3838178070   -2.7999325777   -0.1690609274
C       -2.0871203891   -1.1795794946    1.0674679666
C       -2.4125255405   -2.6990438109   -1.1677131393
C       -3.1958777632   -2.0141699093    0.9666829341
C       -1.1755041389   -1.1390308772   -0.0025895766
C       -0.2385319754    1.2593441852   -0.0696789981
C        0.3277213917    0.6448417625    1.1868812591
C        0.0293379447   -0.2431611469   -0.0055626608
C        1.2221802342   -0.7723084266   -0.7856392473
N       -1.3418514334   -1.9013925186   -1.1000251111
Cl      -4.3535432766   -2.0843667527    2.2808346266
H       -4.2368672453   -3.4618336953   -0.2719052632
H       -1.9423586130   -0.5839903958    1.9601306926
H       -2.5072182896   -3.2982983921   -2.0723520934
H       -1.2751998080    1.5824836090   -0.0511846133
H        0.4129808451    1.8549657651   -0.7032119757
H        1.3777070753    0.8121719435    1.4081383068
H       -0.3014434868    0.6075842478    2.0696190938
H        2.0457796276   -0.0519611913   -0.7536297273
H        0.9573808633   -0.9563098556   -1.8288228936
H        1.5773925936   -1.7155914280   -0.3568893226
21   
torsion grid (165,)
C       -3.3673988098   -2.8388950892   -0.1291050626
C       -2.1895852338   -1.0303351529    0.9549970322
C       -2.3150305218   -2.8730187486   -1.0444451178
C       -3.2819304354   -1.8860547411    0.8866363985
C       -1.1836570412   -1.1401040053   -0.0254612390
C       -0.2275700024    1.2547587671    0.0756528478
C        0.3945580531    0.5108582528    1.2279192539
C        0.0215801876   -0.2482181642   -0.0368341583
C        1.1674124025   -0.7098950983   -0.9201065263
N       -1.2532626254   -2.0589539034   -1.0053345822
Cl      -4.5541433809   -1.7720375044    2.0872436685
H       -4.2069935812   -3.5214531893   -0.2031944760
H       -2.1334845762   -0.2943507061    1.7483160906
H       -2.3298657342   -3.6007494672   -1.8546826603
H       -1.2578740598    1.5839723086    0.1743905917
H        0.4010649881    1.9073463251   -0.5237376502
H        1.4568514707    0.6459816344    1.4085156041
H       -0.1878744132    0.3621385680    2.1312314130
H        2.0040283368   -0.0075351399   -0.8480270425
H        0.8588104282   -0.7789005908   -1.9659295916
H        1.5200592041   -1.6993880470   -0.6133713063
21   
torsion grid (180,)
C       -3.3720743507   -2.8301047897   -0.2933161756
C       -2.4069155513   -0.6558646165   -0.7083304915
C       -2.1379003234   -3.1912011660    0.2463754925
C       -3.4870420442   -1.5254181796   -0.7765554371
C       -1.2011229501   -1.1200060747   -0.1434722692
C        0.2460860559    0.7848659238   -1.1344050479
C       -0.2116536733    1.2437369668    0.2239491153
C        0.0088453673   -0.2434746674   -0.0330799722
C        1.2314035857   -0.8845658378    0.5976068132
N       -1.0796304223   -2.3741616489    0.3251403498
Cl      -5.0014250327   -0.9818719358   -1.4725536070
H       -4.2001335906   -3.5292882078   -0.3347069739
H       -2.5058144533    0.3554808362   -1.0862017896
H       -1.9948901507   -4.1975518817    0.6375749696
H       -0.4564936068    0.8218021112   -1.9613948944
H        1.2790269114    0.9650007681   -1.4177737874
H        0.5082559806    1.7375211620    0.8702504871
H       -1.2314562230    1.5984651592    0.3382394501
H        2.0601233283   -0.1695036195    0.6198260872
H        1.5481363724   -1.7664372465    0.0341539041
H        1.0226768335   -1.2063093690    1.6216969799
