25
0 1 C9H11N3O2
C                     1.890319714522     0.277964607106    -1.010444394178
C                     0.788690530295     0.028418244991    -1.833177471238
C                     2.335267598066     1.600051647308    -0.803202633203
C                     0.202763752291     1.155820835927    -2.401890834261
C                     0.720168622144     2.457480445149    -2.132728613795
C                    -0.955424273220     2.732102329775    -3.439567661385
C                    -1.999285885453     3.297587156176    -4.352670637925
C                    -4.818243695389     1.330331388307    -5.689971126051
C                    -3.873347233439     2.509559076372    -5.602124555184
N                     1.775575028994     2.688668707890    -1.343987668787
N                    -0.035597930882     3.416667877434    -2.798500342857
N                    -0.867168722453     1.369814760524    -3.252200240662
O                    -4.053647688309     0.161907477427    -5.999274089124
O                    -3.034640746479     2.331761714377    -4.468482197628
H                     2.412554591156    -0.541482755736    -0.525539551272
H                     0.423399247765    -0.979563458991    -2.012487766754
H                     3.195783001908     1.777409347710    -0.159871468109
H                    -2.368302554380     4.249176312813    -3.948540965529
H                    -1.549139968254     3.500040069773    -5.336655848771
H                    -5.559986142148     1.538632175758    -6.474908546356
H                    -5.345428347482     1.217800288093    -4.732354556316
H                    -4.455842741741     3.439076320345    -5.511003208191
H                    -3.267734867403     2.566429073856    -6.518675745680
H                    -1.531592039190     0.707032295315    -3.634486038730
H                    -4.655719001540    -0.597005917843    -6.029124160645
