25
0 1 C9H11N3O2
C                     2.039746722063     0.361485254819    -0.514782690939
C                     0.672700886586     0.647995131942    -0.473453728531
C                     2.819680173871     0.783378575370    -1.611453177778
C                     0.180561365694     1.355725200327    -1.566324177946
C                     1.044846474524     1.741027160326    -2.632576235773
C                    -0.906901935107     2.460365439925    -3.149035884001
C                    -2.064477348036     3.112822906322    -3.841338409946
C                    -5.597597089598     3.069511661958    -2.778740246673
C                    -4.409138884071     3.429690341202    -3.665700810651
N                     2.352857940683     1.463306107032    -2.665190755502
N                     0.324982975960     2.428714282017    -3.603045720898
N                    -1.065313525002     1.837687833817    -1.930382123027
O                    -6.803252422033     3.665613051903    -3.255575438748
O                    -3.246294935206     2.828202620475    -3.104861498689
H                     2.512239962206    -0.186445906237     0.294961032972
H                     0.046537209184     0.336209279980     0.358635201615
H                     3.883619621453     0.552250458911    -1.628164128415
H                    -1.893234242678     4.197723931069    -3.899881131301
H                    -2.135324487310     2.730702227419    -4.869358716079
H                    -5.439085919135     3.467380178391    -1.773491626565
H                    -5.685809612965     1.977347918125    -2.700925669196
H                    -4.296747391389     4.522017082200    -3.714720437756
H                    -4.568102210001     3.057779326938    -4.691110495100
H                    -1.950004061624     1.753474953519    -1.446567025334
H                    -7.070671606851     3.212238957923    -4.069925348646
