
  -OEChem-12102412483D

 25 26  0     0  0  0  0  0  0999 V2000
    2.0397    0.3615   -0.5148 C   0  0  0  0  0  0  0  0  0  0  0  0
    0.6727    0.6480   -0.4735 C   0  0  0  0  0  0  0  0  0  0  0  0
    2.8197    0.7834   -1.6115 C   0  0  0  0  0  0  0  0  0  0  0  0
    0.1806    1.3557   -1.5663 C   0  0  0  0  0  0  0  0  0  0  0  0
    1.0448    1.7410   -2.6326 C   0  0  0  0  0  0  0  0  0  0  0  0
   -0.9069    2.4604   -3.1490 C   0  0  0  0  0  0  0  0  0  0  0  0
   -2.0645    3.1128   -3.8413 C   0  0  0  0  0  0  0  0  0  0  0  0
   -5.5976    3.0695   -2.7787 C   0  0  0  0  0  0  0  0  0  0  0  0
   -4.4091    3.4297   -3.6657 C   0  0  0  0  0  0  0  0  0  0  0  0
    2.3529    1.4633   -2.6652 N   0  0  0  0  0  0  0  0  0  0  0  0
    0.3250    2.4287   -3.6030 N   0  0  0  0  0  0  0  0  0  0  0  0
   -1.0653    1.8377   -1.9304 N   0  0  0  0  0  0  0  0  0  0  0  0
   -6.8033    3.6656   -3.2556 O   0  0  0  0  0  0  0  0  0  0  0  0
   -3.2463    2.8282   -3.1049 O   0  0  0  0  0  0  0  0  0  0  0  0
    2.5122   -0.1864    0.2950 H   0  0  0  0  0  0  0  0  0  0  0  0
    0.0465    0.3362    0.3586 H   0  0  0  0  0  0  0  0  0  0  0  0
    3.8836    0.5523   -1.6282 H   0  0  0  0  0  0  0  0  0  0  0  0
   -1.8932    4.1977   -3.8999 H   0  0  0  0  0  0  0  0  0  0  0  0
   -2.1353    2.7307   -4.8694 H   0  0  0  0  0  0  0  0  0  0  0  0
   -5.4391    3.4674   -1.7735 H   0  0  0  0  0  0  0  0  0  0  0  0
   -5.6858    1.9773   -2.7009 H   0  0  0  0  0  0  0  0  0  0  0  0
   -4.2967    4.5220   -3.7147 H   0  0  0  0  0  0  0  0  0  0  0  0
   -4.5681    3.0578   -4.6911 H   0  0  0  0  0  0  0  0  0  0  0  0
   -1.9500    1.7535   -1.4466 H   0  0  0  0  0  0  0  0  0  0  0  0
   -7.0707    3.2122   -4.0699 H   0  0  0  0  0  0  0  0  0  0  0  0
  1  2  1  0  0  0  0
  1  3  2  0  0  0  0
  1 15  1  0  0  0  0
  2  4  2  0  0  0  0
  2 16  1  0  0  0  0
  3 10  1  0  0  0  0
  3 17  1  0  0  0  0
  4  5  1  0  0  0  0
  4 12  1  0  0  0  0
  5 10  2  0  0  0  0
  5 11  1  0  0  0  0
  6  7  1  0  0  0  0
  6 11  2  0  0  0  0
  6 12  1  0  0  0  0
  7 14  1  0  0  0  0
  7 18  1  0  0  0  0
  7 19  1  0  0  0  0
  8  9  1  0  0  0  0
  8 13  1  0  0  0  0
  8 20  1  0  0  0  0
  8 21  1  0  0  0  0
  9 14  1  0  0  0  0
  9 22  1  0  0  0  0
  9 23  1  0  0  0  0
 12 24  1  0  0  0  0
 13 25  1  0  0  0  0
M  END
$$$$
