51
1 1 C21H25N2O3
C                     0.949100817223    -8.984183570985     2.411824363647
C                     2.106504983115    -8.219126878101     2.442271368229
C                     2.020406252824    -6.862000501188     2.074292399937
C                     2.946684122627    -5.765755546910     1.983389640174
C                     2.224553856439    -4.684986163196     1.567809361413
O                     0.882316769366    -5.006527285909     1.377932688193
C                     0.767358566125    -6.343638810145     1.691277729055
C                    -0.401701495139    -7.096243513462     1.651345641022
C                    -0.303305670742    -8.440264504538     2.024530861091
C                    -1.516338781264    -9.346685502229     1.999896566538
C                    -1.314976681818   -10.476662143412     0.984254419168
O                    -1.094829135359   -11.621132281631     1.356773362796
C                    -1.364958416593   -10.099128642451    -0.452832930906
C                    -1.917257279344   -11.137226837514    -1.432798543410
C                    -0.451450873493   -10.862209858599    -1.413436949417
C                     2.634897752072    -3.301572178079     1.319344230051
O                     3.793661951021    -2.905436886348     1.446601786985
N                     1.618921143538    -2.447747182878     0.923514675746
C                     1.922385482775    -1.049696838752     0.710975776807
H                     2.632139463487    -0.753776026489     1.488892396679
C                     0.637793098038    -0.199831967666     0.827652520082
N                     0.658087668497     0.850584763763    -0.263586264321
C                     0.481725731436     0.198149935568    -1.626119091334
C                     1.546125653151    -0.910351038081    -1.774870969298
C                     2.585801648276    -0.755753180718    -0.655233614712
C                     3.111144948888     0.689411900724    -0.628647984486
C                     1.960434117988     1.635765182244    -0.222091082060
H                     0.991490801105   -10.034317933455     2.687541041837
H                     3.053767412250    -8.656349467591     2.744162087902
H                     4.007103456944    -5.759475573405     2.198109744074
H                    -1.349451444654    -6.656957598526     1.353892834275
H                    -1.670229991256    -9.810534473882     2.977596427438
H                    -2.411473947790    -8.773066475960     1.738461084780
H                    -1.553570197527    -9.052905788586    -0.673642753228
H                    -2.260396198399   -12.064549821724    -0.985882512234
H                    -2.512523733485   -10.758061433413    -2.257466466982
H                    -0.013351257444   -10.289027244776    -2.224569398373
H                     0.192511658223   -11.604349659233    -0.953004927930
H                     0.679326063553    -2.816464438047     0.845575080152
H                    -0.270870187539    -0.786823561345     0.674414791028
H                     0.559346619471     0.316694759065     1.785621236084
H                    -0.118378391972     1.498379940804    -0.106750754664
H                    -0.542252290528    -0.177632465085    -1.670054600761
H                     0.589666282848     0.995328817579    -2.363845569906
H                     1.082769954035    -1.898427773036    -1.719304097155
H                     2.019569904118    -0.831366201078    -2.755831985303
H                     3.411458556429    -1.454232003769    -0.791726848586
H                     3.931858701588     0.782528923148     0.085918778289
H                     3.501114336553     0.966602056982    -1.611056278995
H                     1.840206976637     2.483853309094    -0.898237600218
H                     2.059710842521     2.015161910871     0.796727885442
