51
1 1 C21H25N2O3
C                     1.301761994429    -9.192605428891     3.373641891338
C                     2.304915273871    -8.266127911110     3.634274357262
C                     2.143291869354    -6.958899013376     3.140317980502
C                     2.919308219154    -5.749379120939     3.170336949514
C                     2.200386910030    -4.814556436211     2.480651395378
O                     1.003429308859    -5.336071716507     2.002726013582
C                     0.974880357096    -6.652404822394     2.410720600530
C                    -0.038210685150    -7.562777297444     2.147438634271
C                     0.135240380369    -8.860971801373     2.641547683948
C                    -0.905178987027    -9.917493486237     2.376947886515
C                    -1.175610576618   -10.207365882359     0.892614415008
O                    -0.790180248812    -9.463764314349     0.000565902109
C                    -1.966083349300   -11.435776538658     0.618744427697
C                    -1.618467691586   -12.222381158224    -0.649386878589
C                    -2.881890828853   -11.431496733299    -0.606016530423
C                     2.506850789742    -3.423777600806     2.155197806250
O                     3.545059133041    -2.854743741606     2.506956058964
N                     1.534057465231    -2.750764700753     1.431585690410
C                     1.901390345191    -1.484043694067     0.819481605899
H                     2.747686371083    -1.630939165459     0.136899858934
C                     2.332664046189    -0.467613056779     1.909504065900
N                     1.623915221713     0.853290150502     1.649321522316
C                     0.133578017788     0.708045971305     1.884935638034
C                    -0.389417757466    -0.450673072953     1.007986286658
C                     0.720628291928    -0.885549592322     0.034162807578
C                     1.226763930905     0.340828070969    -0.745311731169
C                     1.893906043730     1.329539358192     0.236801250706
H                     1.413691944039   -10.209293595561     3.740983788477
H                     3.188957981168    -8.546708055956     4.199153413343
H                     3.884896203264    -5.578961426194     3.627829994857
H                    -0.909893543216    -7.289593044422     1.563538139308
H                    -0.637729707900   -10.856755507378     2.871032318869
H                    -1.875186955539    -9.626378132224     2.805286040439
H                    -2.290600882152   -12.009492885908     1.481593063821
H                    -0.795963822343   -11.824737483897    -1.234786294461
H                    -1.671584452078   -13.303870921459    -0.576779124401
H                    -3.826422973460   -11.956607412900    -0.505210102744
H                    -2.910568317760   -10.501795007566    -1.164843725419
H                     0.843622829003    -3.325421438240     0.958451008112
H                     2.037978852130    -0.796004436693     2.905119200101
H                     3.404930599899    -0.279402757303     1.904551967353
H                     1.992977384005     1.547053829979     2.304736946442
H                    -0.003532109712     0.525638729665     2.951893062625
H                    -0.318820665007     1.669578627028     1.634732524668
H                    -0.689365518342    -1.290185978357     1.637941164226
H                    -1.271132630088    -0.122373018441     0.453201291162
H                     0.332617870670    -1.627178207771    -0.669039837555
H                     1.947460708947     0.040831519954    -1.509314557055
H                     0.390853145358     0.822595655031    -1.258184187629
H                     1.498350301589     2.343412021637     0.155176327432
H                     2.978820440785     1.369574693991     0.124756041007
