
  -OEChem-12102412493D

 48 50  0     1  0  0  0  0  0999 V2000
   -4.0626   -0.6856   -0.5416 C   0  0  0  0  0  0  0  0  0  0  0  0
   -3.3107   -0.4166   -1.8579 C   0  0  0  0  0  0  0  0  0  0  0  0
   -3.0018    1.0530   -2.0547 C   0  0  0  0  0  0  0  0  0  0  0  0
   -3.7951    1.8000   -2.9301 C   0  0  0  0  0  0  0  0  0  0  0  0
   -3.5920    3.1734   -3.1217 C   0  0  0  0  0  0  0  0  0  0  0  0
   -2.5548    3.7788   -2.4118 C   0  0  0  0  0  0  0  0  0  0  0  0
   -1.7351    3.0597   -1.5264 C   0  0  0  0  0  0  0  0  0  0  0  0
   -1.9543    1.6784   -1.3316 C   0  0  0  0  0  0  0  0  0  0  0  0
   -1.1066    0.8849   -0.4126 C   0  0  0  0  0  0  0  0  0  0  0  0
   -1.0267    1.0846    0.9960 C   0  0  0  0  0  0  0  0  0  0  0  0
    0.0066    0.1079    1.5927 C   0  0  2  0  0  0  0  0  0  0  0  0
   -0.4837   -0.4642    2.3880 H   0  0  0  0  0  0  0  0  0  0  0  0
    1.2752    0.8163    2.1384 C   0  0  0  0  0  0  0  0  0  0  0  0
    2.3123    0.7333    1.0078 C   0  0  1  0  0  0  0  0  0  0  0  0
    2.0078   -0.6267    0.3543 C   0  0  0  0  0  0  0  0  0  0  0  0
    0.4764   -0.7520    0.4043 C   0  0  2  0  0  0  0  0  0  0  0  0
    0.1693   -1.8022    0.4726 H   0  0  0  0  0  0  0  0  0  0  0  0
   -0.2133   -0.1377   -0.8318 C   0  0  0  0  0  0  0  0  0  0  0  0
    0.0511   -0.5485   -1.9871 O   0  0  0  0  0  0  0  0  0  0  0  0
    2.0959    1.8724    0.1653 O   0  0  0  0  0  0  0  0  0  0  0  0
    2.6998    1.8203   -1.1159 C   0  0  0  0  0  0  0  0  0  0  0  0
   -1.6478    1.8911    1.7242 O   0  5  0  0  0  0  0  0  0  0  0  0
   -0.6185    3.8062   -0.8243 C   0  0  0  0  0  0  0  0  0  0  0  0
   -1.1294    4.7319    0.2946 C   0  0  0  0  0  0  0  0  0  0  0  0
   -4.4751    3.9666   -4.0606 C   0  0  0  0  0  0  0  0  0  0  0  0
   -4.2480   -1.7595   -0.4069 H   0  0  0  0  0  0  0  0  0  0  0  0
   -5.0293   -0.1675   -0.5313 H   0  0  0  0  0  0  0  0  0  0  0  0
   -3.4813   -0.3263    0.3116 H   0  0  0  0  0  0  0  0  0  0  0  0
   -3.9226   -0.7678   -2.6991 H   0  0  0  0  0  0  0  0  0  0  0  0
   -2.3816   -0.9907   -1.8806 H   0  0  0  0  0  0  0  0  0  0  0  0
   -4.5936    1.2974   -3.4777 H   0  0  0  0  0  0  0  0  0  0  0  0
   -2.3618    4.8428   -2.5551 H   0  0  0  0  0  0  0  0  0  0  0  0
    1.0770    1.8512    2.4305 H   0  0  0  0  0  0  0  0  0  0  0  0
    1.6650    0.2846    3.0160 H   0  0  0  0  0  0  0  0  0  0  0  0
    3.3508    0.7745    1.3800 H   0  0  0  0  0  0  0  0  0  0  0  0
    2.3967   -0.7421   -0.6608 H   0  0  0  0  0  0  0  0  0  0  0  0
    2.4797   -1.4010    0.9747 H   0  0  0  0  0  0  0  0  0  0  0  0
    2.6140    2.8267   -1.5366 H   0  0  0  0  0  0  0  0  0  0  0  0
    2.1866    1.1173   -1.7826 H   0  0  0  0  0  0  0  0  0  0  0  0
    3.7683    1.5520   -1.0507 H   0  0  0  0  0  0  0  0  0  0  0  0
    0.0949    3.0967   -0.4040 H   0  0  0  0  0  0  0  0  0  0  0  0
   -0.0760    4.4065   -1.5694 H   0  0  0  0  0  0  0  0  0  0  0  0
   -0.2922    5.2565    0.7736 H   0  0  0  0  0  0  0  0  0  0  0  0
   -1.6450    4.1352    1.0507 H   0  0  0  0  0  0  0  0  0  0  0  0
   -1.8223    5.4870   -0.0991 H   0  0  0  0  0  0  0  0  0  0  0  0
   -5.4815    4.1083   -3.6440 H   0  0  0  0  0  0  0  0  0  0  0  0
   -4.0575    4.9607   -4.2533 H   0  0  0  0  0  0  0  0  0  0  0  0
   -4.5947    3.4606   -5.0265 H   0  0  0  0  0  0  0  0  0  0  0  0
  1  2  1  0  0  0  0
  1 26  1  0  0  0  0
  1 27  1  0  0  0  0
  1 28  1  0  0  0  0
  2  3  1  0  0  0  0
  2 29  1  0  0  0  0
  2 30  1  0  0  0  0
  3  4  2  0  0  0  0
  3  8  1  0  0  0  0
  4  5  1  0  0  0  0
  4 31  1  0  0  0  0
  5  6  2  0  0  0  0
  5 25  1  0  0  0  0
  6  7  1  0  0  0  0
  6 32  1  0  0  0  0
  7  8  2  0  0  0  0
  7 23  1  0  0  0  0
  8  9  1  0  0  0  0
  9 10  2  0  0  0  0
  9 18  1  0  0  0  0
 10 11  1  0  0  0  0
 10 22  1  0  0  0  0
 11 12  1  0  0  0  0
 11 13  1  0  0  0  0
 11 16  1  0  0  0  0
 13 14  1  0  0  0  0
 13 33  1  0  0  0  0
 13 34  1  0  0  0  0
 14 15  1  0  0  0  0
 14 20  1  0  0  0  0
 14 35  1  0  0  0  0
 15 16  1  0  0  0  0
 15 36  1  0  0  0  0
 15 37  1  0  0  0  0
 16 17  1  0  0  0  0
 16 18  1  0  0  0  0
 18 19  2  0  0  0  0
 20 21  1  0  0  0  0
 21 38  1  0  0  0  0
 21 39  1  0  0  0  0
 21 40  1  0  0  0  0
 23 24  1  0  0  0  0
 23 41  1  0  0  0  0
 23 42  1  0  0  0  0
 24 43  1  0  0  0  0
 24 44  1  0  0  0  0
 24 45  1  0  0  0  0
 25 46  1  0  0  0  0
 25 47  1  0  0  0  0
 25 48  1  0  0  0  0
M  CHG  1  22  -1
M  END
$$$$
