
  -OEChem-12122420533D

 48 50  0     1  0  0  0  0  0999 V2000
   -2.9213   -1.7150    2.0718 C   0  0  0  0  0  0  0  0  0  0  0  0
   -1.6219   -2.0757    2.8151 C   0  0  0  0  0  0  0  0  0  0  0  0
   -1.1383   -0.9492    3.7041 C   0  0  0  0  0  0  0  0  0  0  0  0
   -1.3733   -1.0264    5.0830 C   0  0  0  0  0  0  0  0  0  0  0  0
   -1.0165    0.0086    5.9533 C   0  0  0  0  0  0  0  0  0  0  0  0
   -0.4101    1.1411    5.4003 C   0  0  0  0  0  0  0  0  0  0  0  0
   -0.1497    1.2479    4.0278 C   0  0  0  0  0  0  0  0  0  0  0  0
   -0.5156    0.1959    3.1550 C   0  0  0  0  0  0  0  0  0  0  0  0
   -0.2494    0.2932    1.7011 C   0  0  0  0  0  0  0  0  0  0  0  0
    0.6311   -0.5715    0.9860 C   0  0  0  0  0  0  0  0  0  0  0  0
    0.6949   -0.1204   -0.4831 C   0  0  2  0  0  0  0  0  0  0  0  0
    0.3531   -0.9458   -1.1184 H   0  0  0  0  0  0  0  0  0  0  0  0
    2.1018    0.3498   -0.9208 C   0  0  0  0  0  0  0  0  0  0  0  0
    1.8191    1.6116   -1.7534 C   0  0  1  0  0  0  0  0  0  0  0  0
    0.6699    2.2907   -1.0074 C   0  0  0  0  0  0  0  0  0  0  0  0
   -0.2300    1.1137   -0.5702 C   0  0  2  0  0  0  0  0  0  0  0  0
   -1.0519    0.9778   -1.2825 H   0  0  0  0  0  0  0  0  0  0  0  0
   -0.8101    1.2858    0.8427 C   0  0  0  0  0  0  0  0  0  0  0  0
   -1.6215    2.2009    1.1082 O   0  0  0  0  0  0  0  0  0  0  0  0
    2.9207    2.5163   -1.8984 O   0  0  0  0  0  0  0  0  0  0  0  0
    3.9957    1.9711   -2.6349 C   0  0  0  0  0  0  0  0  0  0  0  0
    1.3037   -1.5434    1.3988 O   0  5  0  0  0  0  0  0  0  0  0  0
    0.5760    2.4746    3.5152 C   0  0  0  0  0  0  0  0  0  0  0  0
    2.0584    2.1948    3.2070 C   0  0  0  0  0  0  0  0  0  0  0  0
   -1.2468   -0.1076    7.4446 C   0  0  0  0  0  0  0  0  0  0  0  0
   -3.2373   -2.5343    1.4126 H   0  0  0  0  0  0  0  0  0  0  0  0
   -2.7781   -0.8185    1.4628 H   0  0  0  0  0  0  0  0  0  0  0  0
   -3.7340   -1.5129    2.7802 H   0  0  0  0  0  0  0  0  0  0  0  0
   -0.8398   -2.3353    2.0984 H   0  0  0  0  0  0  0  0  0  0  0  0
   -1.7970   -2.9665    3.4325 H   0  0  0  0  0  0  0  0  0  0  0  0
   -1.8573   -1.9175    5.4846 H   0  0  0  0  0  0  0  0  0  0  0  0
   -0.1223    1.9647    6.0549 H   0  0  0  0  0  0  0  0  0  0  0  0
    2.6990    0.6323   -0.0458 H   0  0  0  0  0  0  0  0  0  0  0  0
    2.6548   -0.4231   -1.4623 H   0  0  0  0  0  0  0  0  0  0  0  0
    1.4812    1.3132   -2.7628 H   0  0  0  0  0  0  0  0  0  0  0  0
    1.0828    2.8028   -0.1307 H   0  0  0  0  0  0  0  0  0  0  0  0
    0.1499    3.0382   -1.6124 H   0  0  0  0  0  0  0  0  0  0  0  0
    4.7336    2.7684   -2.7707 H   0  0  0  0  0  0  0  0  0  0  0  0
    3.6696    1.6173   -3.6279 H   0  0  0  0  0  0  0  0  0  0  0  0
    4.4750    1.1312   -2.1114 H   0  0  0  0  0  0  0  0  0  0  0  0
    0.0722    2.8503    2.6221 H   0  0  0  0  0  0  0  0  0  0  0  0
    0.5121    3.2671    4.2722 H   0  0  0  0  0  0  0  0  0  0  0  0
    2.5493    3.0868    2.7971 H   0  0  0  0  0  0  0  0  0  0  0  0
    2.1538    1.3865    2.4779 H   0  0  0  0  0  0  0  0  0  0  0  0
    2.5963    1.8924    4.1139 H   0  0  0  0  0  0  0  0  0  0  0  0
   -0.3850   -0.5640    7.9507 H   0  0  0  0  0  0  0  0  0  0  0  0
   -1.4093    0.8746    7.9025 H   0  0  0  0  0  0  0  0  0  0  0  0
   -2.1204   -0.7306    7.6675 H   0  0  0  0  0  0  0  0  0  0  0  0
  1  2  1  0  0  0  0
  1 26  1  0  0  0  0
  1 27  1  0  0  0  0
  1 28  1  0  0  0  0
  2  3  1  0  0  0  0
  2 29  1  0  0  0  0
  2 30  1  0  0  0  0
  3  4  2  0  0  0  0
  3  8  1  0  0  0  0
  4  5  1  0  0  0  0
  4 31  1  0  0  0  0
  5  6  2  0  0  0  0
  5 25  1  0  0  0  0
  6  7  1  0  0  0  0
  6 32  1  0  0  0  0
  7  8  2  0  0  0  0
  7 23  1  0  0  0  0
  8  9  1  0  0  0  0
  9 10  2  0  0  0  0
  9 18  1  0  0  0  0
 10 11  1  0  0  0  0
 10 22  1  0  0  0  0
 11 12  1  0  0  0  0
 11 13  1  0  0  0  0
 11 16  1  0  0  0  0
 13 14  1  0  0  0  0
 13 33  1  0  0  0  0
 13 34  1  0  0  0  0
 14 15  1  0  0  0  0
 14 20  1  0  0  0  0
 14 35  1  0  0  0  0
 15 16  1  0  0  0  0
 15 36  1  0  0  0  0
 15 37  1  0  0  0  0
 16 17  1  0  0  0  0
 16 18  1  0  0  0  0
 18 19  2  0  0  0  0
 20 21  1  0  0  0  0
 21 38  1  0  0  0  0
 21 39  1  0  0  0  0
 21 40  1  0  0  0  0
 23 24  1  0  0  0  0
 23 41  1  0  0  0  0
 23 42  1  0  0  0  0
 24 43  1  0  0  0  0
 24 44  1  0  0  0  0
 24 45  1  0  0  0  0
 25 46  1  0  0  0  0
 25 47  1  0  0  0  0
 25 48  1  0  0  0  0
M  CHG  1  22  -1
M  END
$$$$
