
  -OEChem-12122420533D

 45 47  0     1  0  0  0  0  0999 V2000
    4.3320   -0.2771   -1.0150 C   0  0  0  0  0  0  0  0  0  0  0  0
    2.5544   -0.4098   -1.1903 S   0  0  0  0  0  0  0  0  0  0  0  0
    2.0226    0.9297   -1.5241 O   0  0  0  0  0  0  0  0  0  0  0  0
    2.2463   -1.5339   -2.0820 O   0  0  0  0  0  0  0  0  0  0  0  0
    2.0345   -0.7878    0.3921 N   0  0  2  0  0  0  0  0  0  0  0  0
    1.4164   -2.1319    0.6135 C   0  0  0  0  0  0  0  0  0  0  0  0
   -0.0430   -1.8533    1.0732 C   0  0  0  0  0  0  0  0  0  0  0  0
   -0.2889   -0.3555    0.7854 C   0  0  2  0  0  0  0  0  0  0  0  0
    1.1373    0.1987    1.0165 C   0  0  0  0  0  0  0  0  0  0  0  0
   -1.3336    0.3203    1.6825 C   0  0  0  0  0  0  0  0  0  0  0  0
   -1.5530    1.7823    1.2618 C   0  0  0  0  0  0  0  0  0  0  0  0
   -1.9002    1.9166   -0.2192 C   0  0  0  0  0  0  0  0  0  0  0  0
   -0.8704    1.2228   -1.0809 N   0  3  1  0  0  0  0  0  0  0  0  0
    0.0405    1.7004   -0.9497 H   0  0  0  0  0  0  0  0  0  0  0  0
   -0.7390   -0.2184   -0.6784 C   0  0  0  0  0  0  0  0  0  0  0  0
   -1.1268    1.3980   -2.5486 C   0  0  0  0  0  0  0  0  0  0  0  0
   -0.7488    2.8075   -2.9682 C   0  0  0  0  0  0  0  0  0  0  0  0
   -1.1657    3.3318   -4.1926 C   0  0  0  0  0  0  0  0  0  0  0  0
   -0.7205    4.6071   -4.5482 C   0  0  0  0  0  0  0  0  0  0  0  0
    0.1123    5.3026   -3.6680 C   0  0  0  0  0  0  0  0  0  0  0  0
    0.4623    4.6949   -2.4604 C   0  0  0  0  0  0  0  0  0  0  0  0
    0.0406    3.4702   -2.1134 N   0  0  0  0  0  0  0  0  0  0  0  0
    4.7106   -1.2415   -0.6759 H   0  0  0  0  0  0  0  0  0  0  0  0
    4.7290   -0.0266   -2.0003 H   0  0  0  0  0  0  0  0  0  0  0  0
    4.5464    0.5098   -0.2921 H   0  0  0  0  0  0  0  0  0  0  0  0
    1.4638   -2.7175   -0.3042 H   0  0  0  0  0  0  0  0  0  0  0  0
    1.9855   -2.6539    1.3855 H   0  0  0  0  0  0  0  0  0  0  0  0
   -0.7610   -2.5029    0.5649 H   0  0  0  0  0  0  0  0  0  0  0  0
   -0.1454   -2.0328    2.1471 H   0  0  0  0  0  0  0  0  0  0  0  0
    1.3399    0.2058    2.0934 H   0  0  0  0  0  0  0  0  0  0  0  0
    1.3414    1.1989    0.6398 H   0  0  0  0  0  0  0  0  0  0  0  0
   -2.2803   -0.2302    1.6202 H   0  0  0  0  0  0  0  0  0  0  0  0
   -1.0144    0.2789    2.7286 H   0  0  0  0  0  0  0  0  0  0  0  0
   -2.3721    2.2269    1.8347 H   0  0  0  0  0  0  0  0  0  0  0  0
   -0.6632    2.3831    1.4800 H   0  0  0  0  0  0  0  0  0  0  0  0
   -2.8584    1.4424   -0.4499 H   0  0  0  0  0  0  0  0  0  0  0  0
   -1.9331    2.9593   -0.5326 H   0  0  0  0  0  0  0  0  0  0  0  0
   -0.0603   -0.6982   -1.3818 H   0  0  0  0  0  0  0  0  0  0  0  0
   -1.7251   -0.6740   -0.8071 H   0  0  0  0  0  0  0  0  0  0  0  0
   -2.1737    1.1647   -2.7540 H   0  0  0  0  0  0  0  0  0  0  0  0
   -0.4940    0.6741   -3.0684 H   0  0  0  0  0  0  0  0  0  0  0  0
   -1.8127    2.7598   -4.8523 H   0  0  0  0  0  0  0  0  0  0  0  0
   -1.0198    5.0492   -5.4942 H   0  0  0  0  0  0  0  0  0  0  0  0
    0.4806    6.2955   -3.9057 H   0  0  0  0  0  0  0  0  0  0  0  0
    1.1020    5.2044   -1.7437 H   0  0  0  0  0  0  0  0  0  0  0  0
  1  2  1  0  0  0  0
  1 23  1  0  0  0  0
  1 24  1  0  0  0  0
  1 25  1  0  0  0  0
  2  3  2  0  0  0  0
  2  4  2  0  0  0  0
  2  5  1  0  0  0  0
  5  6  1  0  0  0  0
  5  9  1  0  0  0  0
  6  7  1  0  0  0  0
  6 26  1  0  0  0  0
  6 27  1  0  0  0  0
  7  8  1  0  0  0  0
  7 28  1  0  0  0  0
  7 29  1  0  0  0  0
  8  9  1  0  0  0  0
  8 10  1  0  0  0  0
  8 15  1  0  0  0  0
  9 30  1  0  0  0  0
  9 31  1  0  0  0  0
 10 11  1  0  0  0  0
 10 32  1  0  0  0  0
 10 33  1  0  0  0  0
 11 12  1  0  0  0  0
 11 34  1  0  0  0  0
 11 35  1  0  0  0  0
 12 13  1  0  0  0  0
 12 36  1  0  0  0  0
 12 37  1  0  0  0  0
 13 14  1  0  0  0  0
 13 15  1  0  0  0  0
 13 16  1  0  0  0  0
 15 38  1  0  0  0  0
 15 39  1  0  0  0  0
 16 17  1  0  0  0  0
 16 40  1  0  0  0  0
 16 41  1  0  0  0  0
 17 18  1  0  0  0  0
 17 22  2  0  0  0  0
 18 19  2  0  0  0  0
 18 42  1  0  0  0  0
 19 20  1  0  0  0  0
 19 43  1  0  0  0  0
 20 21  2  0  0  0  0
 20 44  1  0  0  0  0
 21 22  1  0  0  0  0
 21 45  1  0  0  0  0
M  CHG  1  13   1
M  END
$$$$
