
  -OEChem-12122420533D

 48 51  0     1  0  0  0  0  0999 V2000
    2.6308    0.5525    1.8485 C   0  0  0  0  0  0  0  0  0  0  0  0
    1.3194    0.6171    1.1173 N   0  3  1  0  0  0  0  0  0  0  0  0
    0.8341    1.4580    1.4429 H   0  0  0  0  0  0  0  0  0  0  0  0
    1.5337    0.8012   -0.3756 C   0  0  0  0  0  0  0  0  0  0  0  0
    0.2436    0.7826   -1.2045 C   0  0  2  0  0  0  0  0  0  0  0  0
    0.5427    1.2123   -2.1663 H   0  0  0  0  0  0  0  0  0  0  0  0
   -0.8723    1.6546   -0.5999 C   0  0  0  0  0  0  0  0  0  0  0  0
   -1.4615    1.0244    0.6941 C   0  0  0  0  0  0  0  0  0  0  0  0
   -1.0030   -0.4386    0.8511 C   0  0  2  0  0  0  0  0  0  0  0  0
   -1.6649   -0.9360    1.5658 H   0  0  0  0  0  0  0  0  0  0  0  0
    0.4178   -0.5476    1.4765 C   0  0  0  0  0  0  0  0  0  0  0  0
   -1.1705   -1.1052   -0.4253 N   0  0  1  0  0  0  0  0  0  0  0  0
   -0.2724   -0.6399   -1.4848 C   0  0  0  0  0  0  0  0  0  0  0  0
   -1.3146   -2.5638   -0.3715 C   0  0  0  0  0  0  0  0  0  0  0  0
   -1.7569   -3.1241   -1.6800 C   0  0  0  0  0  0  0  0  0  0  0  0
   -1.1699   -3.9736   -2.5758 C   0  0  0  0  0  0  0  0  0  0  0  0
   -2.0714   -4.0943   -3.6813 C   0  0  0  0  0  0  0  0  0  0  0  0
   -3.1598   -3.3045   -3.3927 C   0  0  0  0  0  0  0  0  0  0  0  0
   -2.9692   -2.7083   -2.1600 O   0  0  0  0  0  0  0  0  0  0  0  0
   -4.4235   -3.0025   -4.0568 C   0  0  0  0  0  0  0  0  0  0  0  0
   -5.4699   -2.4159   -3.3206 C   0  0  0  0  0  0  0  0  0  0  0  0
   -6.6958   -2.1217   -3.9142 C   0  0  0  0  0  0  0  0  0  0  0  0
   -6.9161   -2.4059   -5.2668 C   0  0  0  0  0  0  0  0  0  0  0  0
   -5.8955   -2.9813   -6.0194 C   0  0  0  0  0  0  0  0  0  0  0  0
   -4.6545   -3.2768   -5.4293 C   0  0  0  0  0  0  0  0  0  0  0  0
   -3.6383   -3.8406   -6.2703 C   0  0  0  0  0  0  0  0  0  0  0  0
   -2.8222   -4.2950   -6.9673 N   0  0  0  0  0  0  0  0  0  0  0  0
    3.1508   -0.3574    1.5486 H   0  0  0  0  0  0  0  0  0  0  0  0
    3.2282    1.4264    1.5869 H   0  0  0  0  0  0  0  0  0  0  0  0
    2.4404    0.5367    2.9218 H   0  0  0  0  0  0  0  0  0  0  0  0
    2.0467    1.7612   -0.4763 H   0  0  0  0  0  0  0  0  0  0  0  0
    2.2199    0.0104   -0.6877 H   0  0  0  0  0  0  0  0  0  0  0  0
   -0.5099    2.6728   -0.4175 H   0  0  0  0  0  0  0  0  0  0  0  0
   -1.6619    1.7438   -1.3490 H   0  0  0  0  0  0  0  0  0  0  0  0
   -1.2161    1.6126    1.5902 H   0  0  0  0  0  0  0  0  0  0  0  0
   -2.5509    1.0218    0.6366 H   0  0  0  0  0  0  0  0  0  0  0  0
    0.9333   -1.4562    1.1568 H   0  0  0  0  0  0  0  0  0  0  0  0
    0.3632   -0.5493    2.5679 H   0  0  0  0  0  0  0  0  0  0  0  0
   -0.8176   -0.6451   -2.4336 H   0  0  0  0  0  0  0  0  0  0  0  0
    0.5851   -1.3220   -1.6212 H   0  0  0  0  0  0  0  0  0  0  0  0
   -2.0482   -2.7974    0.4090 H   0  0  0  0  0  0  0  0  0  0  0  0
   -0.3728   -3.0779   -0.1064 H   0  0  0  0  0  0  0  0  0  0  0  0
   -0.2108   -4.4627   -2.4647 H   0  0  0  0  0  0  0  0  0  0  0  0
   -1.9275   -4.6949   -4.5664 H   0  0  0  0  0  0  0  0  0  0  0  0
   -5.3139   -2.2028   -2.2690 H   0  0  0  0  0  0  0  0  0  0  0  0
   -7.4868   -1.6756   -3.3178 H   0  0  0  0  0  0  0  0  0  0  0  0
   -7.8726   -2.1819   -5.7292 H   0  0  0  0  0  0  0  0  0  0  0  0
   -6.0423   -3.2044   -7.0715 H   0  0  0  0  0  0  0  0  0  0  0  0
  1  2  1  0  0  0  0
  1 28  1  0  0  0  0
  1 29  1  0  0  0  0
  1 30  1  0  0  0  0
  2  3  1  0  0  0  0
  2  4  1  0  0  0  0
  2 11  1  0  0  0  0
  4  5  1  0  0  0  0
  4 31  1  0  0  0  0
  4 32  1  0  0  0  0
  5  6  1  0  0  0  0
  5  7  1  0  0  0  0
  5 13  1  0  0  0  0
  7  8  1  0  0  0  0
  7 33  1  0  0  0  0
  7 34  1  0  0  0  0
  8  9  1  0  0  0  0
  8 35  1  0  0  0  0
  8 36  1  0  0  0  0
  9 10  1  0  0  0  0
  9 11  1  0  0  0  0
  9 12  1  0  0  0  0
 11 37  1  0  0  0  0
 11 38  1  0  0  0  0
 12 13  1  0  0  0  0
 12 14  1  0  0  0  0
 13 39  1  0  0  0  0
 13 40  1  0  0  0  0
 14 15  1  0  0  0  0
 14 41  1  0  0  0  0
 14 42  1  0  0  0  0
 15 16  2  0  0  0  0
 15 19  1  0  0  0  0
 16 17  1  0  0  0  0
 16 43  1  0  0  0  0
 17 18  2  0  0  0  0
 17 44  1  0  0  0  0
 18 19  1  0  0  0  0
 18 20  1  0  0  0  0
 20 21  1  0  0  0  0
 20 25  2  0  0  0  0
 21 22  2  0  0  0  0
 21 45  1  0  0  0  0
 22 23  1  0  0  0  0
 22 46  1  0  0  0  0
 23 24  2  0  0  0  0
 23 47  1  0  0  0  0
 24 25  1  0  0  0  0
 24 48  1  0  0  0  0
 25 26  1  0  0  0  0
 26 27  3  0  0  0  0
M  CHG  1   2   1
M  END
$$$$
