48
1 1 C20H24N3O
C                     1.567285576518     1.422712166478     1.917973335486
N                     0.546175239944     0.866453968087     0.969060937101
H                    -0.256437180749     1.502294994896     0.979541746851
C                     1.057072415462     0.887687145455    -0.466131942684
C                    -0.023534992400     0.524070174328    -1.506531513560
H                     0.201103501127     1.109698115377    -2.402362886791
C                    -1.449295833457     0.858965004575    -1.026254806913
C                    -1.989888185035    -0.266352479981    -0.104829386296
C                    -0.869232693495    -1.181541605379     0.424677231895
H                    -1.336671772682    -2.003849096960     0.974611291651
C                     0.025614891676    -0.475208654790     1.456790353329
N                    -0.019619133958    -1.741178494425    -0.631492433704
C                     0.035561708702    -0.963490156310    -1.867279259393
C                    -0.005807407673    -3.192129239648    -0.795113857907
C                    -1.015613730553    -3.793414550092    -1.729471586370
C                    -0.904037456531    -4.781096772852    -2.667250350248
C                    -2.227409106164    -5.034909070591    -3.158162788565
C                    -3.061728417708    -4.170457720740    -2.503793108567
O                    -2.329076880881    -3.403212260952    -1.616424623044
C                    -4.502956674708    -3.938766951320    -2.611509659266
C                    -5.385119707510    -5.028439900357    -2.576298292336
C                    -6.763005478851    -4.841217331312    -2.703693821644
C                    -7.291948110556    -3.555059497509    -2.858604819622
C                    -6.435090220840    -2.456954278957    -2.907602570541
C                    -5.047016438792    -2.644448130699    -2.794906605168
C                    -4.183490249459    -1.509989660173    -2.948889521570
N                    -3.489860965119    -0.585723600414    -3.097780096881
H                     2.454213908312     0.790160727464     1.881298079180
H                     1.821493651185     2.439193065018     1.616210846035
H                     1.153290680930     1.424524275626     2.926690140700
H                     1.412265795581     1.909847200279    -0.617234309399
H                     1.909656881695     0.207480615692    -0.503213580629
H                    -1.487427925207     1.847729706946    -0.544997349682
H                    -2.096964415433     0.935075848397    -1.900186980338
H                    -2.565484735956     0.141707820193     0.734109975679
H                    -2.675058063652    -0.891761709434    -0.676693290511
H                     0.899621626170    -1.090211042884     1.675345235137
H                    -0.511018219514    -0.261990197061     2.386159718730
H                    -0.787141152340    -1.190399910175    -2.560448350063
H                     0.974121363515    -1.200319236445    -2.383914906669
H                    -0.105809020316    -3.639555397655     0.201063844586
H                     0.979029577395    -3.499249156223    -1.167241199814
H                     0.010957619584    -5.273226493382    -2.970643880282
H                    -2.519880270400    -5.735966949906    -3.928517540181
H                    -4.982141281303    -6.025783089198    -2.428402765977
H                    -7.426680311466    -5.700433679187    -2.669536649803
H                    -8.364165800042    -3.410144297200    -2.949143082122
H                    -6.827180021589    -1.455159497958    -3.053047038021
