48
-1 1 C20H25O3
C                    -4.167050861983    -0.693607175316    -0.586771429501
C                    -3.280848270274    -0.427820211145    -1.816837685497
C                    -3.015919578621     1.049445379033    -2.000830865946
C                    -3.821412019824     1.784959822780    -2.875453710883
C                    -3.675175675691     3.170188552348    -3.026532312249
C                    -2.689794982206     3.804387478772    -2.268297851342
C                    -1.861144560907     3.094446862549    -1.384420236751
C                    -2.012637629740     1.698535701422    -1.241517751379
C                    -1.129748624014     0.926157397319    -0.333906755852
C                    -0.106523436009     0.039102237623    -0.775764143942
C                     0.688155644610    -0.458834700076     0.452662964477
H                     1.680895124012     0.004647567646     0.411528808076
C                     0.797129737324    -1.987288808366     0.534311515514
C                    -0.469840654706    -2.428910389799     1.288347706687
C                    -0.687578846742    -1.308906892209     2.318739435821
C                    -0.145028343688    -0.008911238392     1.666727922935
H                     0.422083676176     0.574704553940     2.400629270499
C                    -1.243060392908     0.902824264858     1.083791033213
O                    -2.076765149791     1.469633664152     1.828934062687
O                    -1.644729851659    -2.492364812313     0.471459794093
C                    -1.563360843775    -3.397732011798    -0.612062348304
O                     0.184822755687    -0.337634295999    -1.934001028384
C                    -0.831269176437     3.868030875759    -0.588127827111
C                    -1.432132780270     4.514541782044     0.674573057348
C                    -4.560899293231     3.945511886382    -3.977962927394
H                    -4.329123770789    -1.768623048057    -0.442451617055
H                    -5.143947056161    -0.206725807903    -0.701068939119
H                    -3.693635969767    -0.301249610899     0.315726338310
H                    -3.772363764232    -0.822645858073    -2.716281772713
H                    -2.333978141373    -0.955518011671    -1.704975994455
H                    -4.586943019534     1.262976464075    -3.451522806470
H                    -2.550101226352     4.881601823526    -2.368064456386
H                     0.914483340585    -2.440680476322    -0.453595914483
H                     1.667362406410    -2.281269281259     1.137533487547
H                    -0.332523132074    -3.415605691770     1.764825106174
H                    -1.741143399392    -1.221019241315     2.597525426501
H                    -0.119141259131    -1.549870661438     3.225775004049
H                    -2.577071790665    -3.503491945636    -1.009250115298
H                    -1.203649031126    -4.388851378128    -0.284443715287
H                    -0.912425349246    -3.025185286368    -1.412867628823
H                    -0.021869227209     3.193376494458    -0.296209785354
H                    -0.393886976516     4.648693803644    -1.225708778006
H                    -0.662262368679     5.055256034885     1.241640695120
H                    -1.866966658539     3.743288117100     1.315933741138
H                    -2.220058284363     5.229644728336     0.405856986189
H                    -5.612172429182     3.918298059305    -3.662546893309
H                    -4.260041014171     4.997215777875    -4.032327260202
H                    -4.519165478506     3.533857769142    -4.994257947147
