53
-1 1 C21ClH24O6S
C                    -1.440644997878    -6.133073308277     0.866346878495
S                     0.220519330492    -5.896495761946     1.554193933414
O                     1.140914829379    -6.675434350014     0.703190680437
O                     0.146043734212    -6.205646713573     2.994941385291
C                     0.511062591023    -4.146785174016     1.245665664610
C                     1.267194567371    -3.867009553159     0.104177498182
C                     1.433081531507    -2.547105046153    -0.296197968827
C                     0.828549052112    -1.499390790988     0.402854392361
C                     0.139797035370    -1.807873995060     1.583739717455
C                    -0.058738400504    -3.121544455851     2.031713933716
C                    -0.825544050529    -3.400858893477     3.304102121405
O                     0.100453736360    -3.432736449272     4.388345363004
C                    -0.340692950860    -4.194134209834     5.510238049695
C                    -1.448474513383    -3.483390207354     6.300156154700
C                    -1.822241452669    -4.273834113419     7.563779834254
C                    -0.592194818563    -4.535709796531     8.445145084785
C                     0.520666067291    -5.233681466728     7.649160682741
C                     0.886600506512    -4.445909503402     6.383447721599
Cl                   -0.514376737933    -0.468079193108     2.525895993973
C                     1.108163416798    -0.073794222412    -0.072314044961
C                     0.015159397764     0.712570081907    -0.615299817437
C                    -1.218721347487     0.047576656103    -0.966994277839
O                    -1.427210135726    -1.180854452896    -0.842490246895
C                    -2.370905264865     0.884133101348    -1.528896262309
C                    -1.900231616436     2.126284309599    -2.280292383086
C                    -1.000707570544     2.949733807934    -1.364416824885
C                     0.171274961826     2.157084772807    -0.758034458381
O                     1.156111766974     2.812089010365    -0.390733725937
O                     2.291561651004     0.270127402655     0.040190485265
H                    -2.149186924648    -5.506441832929     1.409305768768
H                    -1.416173393566    -5.860091835962    -0.189203745021
H                    -1.680127150293    -7.191123495056     0.994487526358
H                     1.711377826888    -4.683766748399    -0.454315299151
H                     2.019780278518    -2.310817785271    -1.178764721507
H                    -1.576012068563    -2.619876649480     3.459356349014
H                    -1.345898829326    -4.361296353461     3.243144277595
H                    -0.717080994830    -5.163614064782     5.149687655211
H                    -1.088346783321    -2.482841035424     6.572726837330
H                    -2.333555154153    -3.342980511776     5.668613872502
H                    -2.591639324885    -3.735680628477     8.131165221774
H                    -2.265564672216    -5.236433923780     7.271441128365
H                    -0.214712478456    -3.577303704981     8.828431556958
H                    -0.871966973310    -5.137745607262     9.319148623049
H                     1.410067138356    -5.368671969618     8.276746089971
H                     0.183424960543    -6.240182554042     7.364858252477
H                     1.632332012795    -4.980808971840     5.787514562382
H                     1.322174481445    -3.475907223545     6.656671879875
H                    -2.974678258543     0.218871149860    -2.153605596691
H                    -3.000881769905     1.184983225788    -0.678706248869
H                    -1.337612797933     1.821516559267    -3.172725882989
H                    -2.756151809426     2.720574675208    -2.627936955043
H                    -0.564863048470     3.814229391708    -1.874311738767
H                    -1.592202943837     3.342261984376    -0.524343420272
