45
1 1 C15H24N3O2S
C                     4.304531593449     0.008359460023    -0.880537903130
S                     2.533985356656    -0.147952608705    -1.094441804099
O                     1.976504346150     1.214533925885    -1.292073648719
O                     2.260247616022    -1.165146732290    -2.115370220133
N                     1.999997163126    -0.699147549585     0.426505724370
C                     1.441636332006    -2.088398264084     0.508344980290
C                    -0.024964622844    -1.920447111944     1.001573436755
C                    -0.348387960102    -0.424355238146     0.800359268798
C                     1.039746550323     0.180110443209     1.114989358307
C                    -1.447217347084     0.166613900162     1.690536378242
C                    -1.672849460783     1.647841932251     1.340829142311
C                    -1.954063401174     1.875348682678    -0.144650654038
N                    -0.906427792326     1.221736890281    -1.020104614119
H                     0.020074490948     1.644469734601    -0.858019883494
C                    -0.765680222392    -0.232631582999    -0.667092841136
C                    -1.162535618471     1.409514566220    -2.507976773011
C                    -1.034895164783     2.856354414157    -2.911787409759
C                     0.203013068842     3.383255072716    -3.294650487245
C                     0.263771883812     4.731247247711    -3.661602132067
C                    -0.907811929406     5.487777160030    -3.629098215668
C                    -2.095832299001     4.868424914098    -3.221849779171
N                    -2.166910328875     3.579721351612    -2.865353929892
H                     4.700994805714    -0.977472526371    -0.636303294854
H                     4.708828528178     0.366923878894    -1.828729768533
H                     4.489378257362     0.720499897661    -0.076486993566
H                     1.503533491824    -2.571524955143    -0.466791662621
H                     2.040767362025    -2.663227095292     1.216916191727
H                    -0.711779507030    -2.579738346380     0.463929888141
H                    -0.100881385631    -2.165333698294     2.064690474158
H                     1.218717521536     0.097211218877     2.192654054034
H                     1.202325939929     1.219900423106     0.841383250504
H                    -2.377658116417    -0.397113100089     1.552955992122
H                    -1.174194916452     0.072328396247     2.746269335057
H                    -2.528599290462     2.044857806611     1.894860271952
H                    -0.808332688754     2.246733398455     1.647707812287
H                    -2.906232752997     1.431137345019    -0.445568656038
H                    -1.984682398933     2.932905750381    -0.402569033550
H                    -0.065229214085    -0.674494548617    -1.375431637942
H                    -1.742111894231    -0.694308504457    -0.837051363523
H                    -2.167715583129     1.037931805872    -2.710702091161
H                    -0.423836501602     0.788384649992    -3.015634569067
H                     1.089685993255     2.755656674185    -3.304562680207
H                     1.204685445860     5.176315683115    -3.972381361972
H                    -0.910643053942     6.535400132127    -3.914210789782
H                    -3.027707810630     5.428510148535    -3.183989938511
