49
1 1 C17H26N3O2S
C                     6.184098183629    -3.469879471773     5.177685257238
C                     6.933383702268    -4.104197611239     4.219244308785
S                     5.975128024049    -5.286028094457     3.404525313657
C                     4.626844452331    -4.844566927804     4.417939058750
N                     4.880974954911    -3.893758879064     5.282521692175
C                     3.279167333573    -5.486679672954     4.289659750582
N                     2.279860124681    -4.553263588879     3.666297256869
H                     2.649488591257    -4.118220637985     2.786450776683
C                     0.975000067565    -5.194305580986     3.254432839314
C                    -0.012036585457    -4.016823738499     3.129677644991
C                     0.744035069981    -2.744006044126     3.628100970631
C                     1.870715445151    -3.357633254111     4.486587260334
C                    -0.169870001624    -1.802119277562     4.420812194664
C                     0.407192867598    -0.391202963245     4.459033664446
C                     0.504572650584     0.143671707949     3.037696189234
N                     1.241037232013    -0.775004356594     2.150020246461
C                     1.438672357531    -2.075371910863     2.420392764000
O                     2.193228004929    -2.796885659143     1.719550233351
C                     1.892364809813    -0.201349393901     0.944201879819
C                     0.960424399890     0.733792818610     0.164611620599
C                     1.722124140720     1.306693545025    -1.037885238277
O                     2.901768296542     1.989583580049    -0.627825489639
C                     3.816040352542     1.118267298912     0.028541866080
C                     3.204545139330     0.512281069176     1.297886993760
H                     6.550253146869    -2.692614337841     5.838664164802
H                     7.974937689105    -3.953807099000     3.966558354155
H                     3.319686760683    -6.378299499394     3.661086115494
H                     2.893482540321    -5.766499014433     5.273115604297
H                     1.141283925192    -5.740057722582     2.325544173199
H                     0.689939008852    -5.896780771500     4.039998324175
H                    -0.363783693700    -3.895583582630     2.104802784073
H                    -0.882288738849    -4.191366348434     3.765883931078
H                     1.492788146386    -3.720480050143     5.446416912666
H                     2.739510863642    -2.725511401157     4.659134258340
H                    -1.151844333778    -1.769056449484     3.934777119197
H                    -0.332694167441    -2.202084933864     5.427349324239
H                    -0.234112972266     0.273745720626     5.044088533036
H                     1.396791325706    -0.385079017640     4.931375861538
H                    -0.497529661750     0.317485445069     2.629196174550
H                     1.028330541564     1.101655584878     3.029217743716
H                     2.132174268916    -1.056751665280     0.310840741463
H                     0.071738972211     0.192325705352    -0.179987700555
H                     0.627644394614     1.571271127598     0.785648750895
H                     1.979873437530     0.500807888112    -1.743631373674
H                     1.110619793909     2.040040108492    -1.567591864288
H                     4.127257005621     0.314805347709    -0.658309981135
H                     4.695307410141     1.719710928594     0.269034784010
H                     3.022250496016     1.316422505085     2.019904005442
H                     3.906412548650    -0.198170097219     1.748222954371
