45
1 1 C15H24N3O2S
C                     4.444765284686     0.122880525845    -0.543930586635
S                     2.704286770001     0.014697309640    -0.950029189846
O                     2.173759162590     1.399760332656    -1.010023851757
O                     2.540446769151    -0.859684426285    -2.114905840671
N                     2.023510623305    -0.726310787320     0.423557000783
C                     1.425055585421    -2.092211991323     0.264807060271
C                    -0.059545162912    -1.946581221715     0.706948140264
C                    -0.338590820850    -0.429056130980     0.658030670819
C                     1.033263489188     0.090646294028     1.143379064771
C                    -1.478212886179     0.100052048523     1.532721239856
C                    -1.601465635274     1.622156469503     1.348078282710
C                    -1.767885586696     2.027550526176    -0.116925070265
N                    -0.736206861543     1.405822385694    -1.033684904751
H                     0.210946228996     1.771980328202    -0.840017280078
C                    -0.647664703108    -0.079990892841    -0.807176537092
C                    -1.042612896894     1.767013671990    -2.486219403281
C                    -0.033137579651     1.224110170694    -3.464773578454
C                     1.047043274337     1.995572103913    -3.897034321953
C                     1.939804297891     1.434971636085    -4.813919095179
C                     1.718001448074     0.130238586790    -5.249514290118
C                     0.608484776979    -0.563372049345    -4.752961431289
N                    -0.257966243591    -0.033346731651    -3.883114410678
H                     4.820648927523    -0.890941971600    -0.404436648096
H                     4.937866484615     0.609088721637    -1.387484199259
H                     4.548364386886     0.713025364812     0.366434321181
H                     1.523219116899    -2.421606040342    -0.769890017606
H                     1.969096764802    -2.791273089227     0.902662426592
H                    -0.730906283928    -2.525214355516     0.066888787903
H                    -0.190337687115    -2.305314585702     1.731871468521
H                     1.126648730373    -0.124972416277     2.213669845405
H                     1.235603333491     1.149819849939     1.007752824256
H                    -2.419934570620    -0.391209318663     1.260450023901
H                    -1.293754633046    -0.129852917147     2.586793733836
H                    -2.473806128318     2.005734470693     1.885832011311
H                    -0.731597288821     2.129175363454     1.777776226270
H                    -2.735487598102     1.693934865416    -0.501283068080
H                    -1.703806729782     3.110199346255    -0.245300916231
H                     0.082711652178    -0.470342108323    -1.511435912073
H                    -1.616039450828    -0.498108327614    -1.092950519219
H                    -1.089213025248     2.857177951483    -2.515974074734
H                    -2.029363577260     1.354156301025    -2.700864406351
H                     1.192150195550     3.006249743530    -3.526526394604
H                     2.788570110245     2.007334469740    -5.176948325054
H                     2.385083938504    -0.348544173215    -5.959550481037
H                     0.405861119063    -1.583314142559    -5.071703836278
