45
1 1 C15H24N3O2S
C                    -3.646262681758    -1.451489204202     2.950380705907
S                    -2.812360203102    -0.801160850561     1.501619314975
O                    -3.365837861007    -1.467240999977     0.316690536230
O                    -2.791532486604     0.666262588551     1.582251628804
N                    -1.194284896418    -1.325992473853     1.749317478055
C                    -0.759119366915    -2.545086801313     1.006305651587
C                     0.536114914406    -2.133625622085     0.263187635129
C                     0.479654388956    -0.592272364192     0.208753953647
C                    -0.158969242131    -0.295860734774     1.586760626106
C                    -0.389311556891    -0.107893597518    -0.970773280470
C                    -0.439121584245     1.419656178670    -1.058422674617
C                     0.959544663945     2.018317553331    -1.138304160069
N                     1.808108335896     1.527579373070     0.030298215825
H                     1.313306609125     1.826116829053     0.876801414596
C                     1.874983428692     0.011865317253     0.079498620449
C                     3.183416061702     2.177541218574     0.109977941883
C                     4.192736271813     1.589067436570    -0.848290727637
C                     5.400888532209     1.072824454659    -0.373995967182
C                     6.327858179504     0.585085666703    -1.302113352221
C                     6.001526034495     0.622132892255    -2.656874799137
C                     4.758624061368     1.147346041731    -3.031110584139
N                     3.870879939403     1.628041396345    -2.152115714130
H                    -3.199035637260    -0.998865954474     3.834879447541
H                    -4.698369462320    -1.176866382932     2.855626192231
H                    -3.532070621283    -2.535954075800     2.955419679477
H                    -0.575671487706    -3.358978988800     1.711518619777
H                    -1.541260879427    -2.855138502513     0.311821798970
H                     1.414668477080    -2.459637223290     0.831092918091
H                     0.596314426106    -2.583628740814    -0.730815090819
H                    -0.604815790290     0.692449642502     1.698217602417
H                     0.589378675034    -0.429296292765     2.380646099662
H                     0.037698531570    -0.512640787969    -1.896895154123
H                    -1.402373049882    -0.508742821009    -0.900201196926
H                    -0.979334621598     1.728435372723    -1.958242832201
H                    -0.997279602907     1.836139847598    -0.212612422820
H                     1.501347169719     1.730805980791    -2.038490032023
H                     0.950304404330     3.108773568221    -1.073783725940
H                     2.516401067826    -0.249805320274     0.925861550216
H                     2.368138948662    -0.302658666933    -0.841017996518
H                     3.520486238919     2.061415735074     1.141643696902
H                     3.029313207285     3.240535015896    -0.090594180656
H                     5.621954952560     1.059267950542     0.689645357834
H                     7.281346812447     0.185042327187    -0.969632295027
H                     6.688657721202     0.256590255841    -3.413596919203
H                     4.468323455048     1.190470370120    -4.078614168565
