49
1 1 C17H26N3O2S
C                    -1.465529175202    -6.656428881700     1.384191081851
C                    -1.974752399158    -7.715684470662     2.086456855776
S                    -2.748745513978    -7.156138086795     3.532033017950
C                    -2.336450880643    -5.529181456106     3.075175244557
N                    -1.676728059857    -5.419591956754     1.952961627763
C                    -2.739640744897    -4.317262178943     3.867437530520
N                    -1.738750671716    -3.226901013777     3.667194254575
H                    -1.530348689707    -3.100461739439     2.650286003104
C                    -2.177515347100    -1.872138355045     4.189859982002
C                    -0.879595491435    -1.141855373078     4.588620479541
C                     0.294409646194    -2.085399575584     4.179001572562
C                    -0.372085309362    -3.467451770776     4.248971219602
C                     1.505496681066    -1.995072915175     5.110757775897
C                     2.303780823766    -0.735195476891     4.790135839291
C                     2.833052302065    -0.818120583281     3.365115613491
N                     1.790154284489    -1.176040125635     2.386911806549
C                     0.627036216538    -1.776298308405     2.703382670736
O                    -0.239224623034    -2.061071113708     1.845420160636
C                     2.046296835243    -0.853688573316     0.959681625590
C                     1.804587196028     0.633832137824     0.667899942217
C                     2.107407775312     0.921462362478    -0.807947902837
O                     3.428470037387     0.522867058188    -1.158908521450
C                     3.627511832350    -0.873697012365    -0.971170348590
C                     3.447880828986    -1.271830995837     0.499706792047
H                    -0.930194527302    -6.729184953676     0.444619206287
H                    -1.942146499727    -8.769665903828     1.843118303271
H                    -3.704982841524    -3.933591069023     3.522325325522
H                    -2.816536168018    -4.524090255634     4.937596868826
H                    -2.736259212560    -1.377868774169     3.395808256842
H                    -2.837290307716    -2.039392178624     5.042545695711
H                    -0.811734980712    -0.166646370475     4.105719297351
H                    -0.855788581326    -0.981268335670     5.669289097331
H                    -0.490859425344    -3.791506516990     5.287115929341
H                     0.125766399056    -4.243156578077     3.668845477976
H                     1.173517405578    -2.006040202827     6.154310443892
H                     2.146678640545    -2.874407559288     4.969642343133
H                     1.677308138624     0.155720125809     4.911080761902
H                     3.151319288956    -0.627635795485     5.472541841212
H                     3.257827754542     0.142201113897     3.064933019644
H                     3.639039762089    -1.559142571142     3.310730124178
H                     1.312972259088    -1.433832312258     0.398025607979
H                     0.764448440723     0.895471654439     0.891903142627
H                     2.454640382810     1.259668656707     1.289902783881
H                     1.376759989160     0.402285034725    -1.448698757518
H                     2.043550437270     1.991390021709    -1.017075873645
H                     2.929294020666    -1.442356949656    -1.606230611467
H                     4.644355465993    -1.087035138228    -1.307439198049
H                     4.224632401727    -0.769064114858     1.084426717921
H                     3.583606824698    -2.353903594852     0.612705076361
