
  -OEChem-12122420533D

 45 47  0     1  0  0  0  0  0999 V2000
    4.4448    0.1229   -0.5439 C   0  0  0  0  0  0  0  0  0  0  0  0
    2.7043    0.0147   -0.9500 S   0  0  0  0  0  0  0  0  0  0  0  0
    2.1738    1.3998   -1.0100 O   0  0  0  0  0  0  0  0  0  0  0  0
    2.5404   -0.8597   -2.1149 O   0  0  0  0  0  0  0  0  0  0  0  0
    2.0235   -0.7263    0.4236 N   0  0  2  0  0  0  0  0  0  0  0  0
    1.4251   -2.0922    0.2648 C   0  0  0  0  0  0  0  0  0  0  0  0
   -0.0595   -1.9466    0.7069 C   0  0  0  0  0  0  0  0  0  0  0  0
   -0.3386   -0.4291    0.6580 C   0  0  2  0  0  0  0  0  0  0  0  0
    1.0333    0.0906    1.1434 C   0  0  0  0  0  0  0  0  0  0  0  0
   -1.4782    0.1001    1.5327 C   0  0  0  0  0  0  0  0  0  0  0  0
   -1.6015    1.6222    1.3481 C   0  0  0  0  0  0  0  0  0  0  0  0
   -1.7679    2.0276   -0.1169 C   0  0  0  0  0  0  0  0  0  0  0  0
   -0.7362    1.4058   -1.0337 N   0  3  1  0  0  0  0  0  0  0  0  0
    0.2109    1.7720   -0.8400 H   0  0  0  0  0  0  0  0  0  0  0  0
   -0.6477   -0.0800   -0.8072 C   0  0  0  0  0  0  0  0  0  0  0  0
   -1.0426    1.7670   -2.4862 C   0  0  0  0  0  0  0  0  0  0  0  0
   -0.0331    1.2241   -3.4648 C   0  0  0  0  0  0  0  0  0  0  0  0
    1.0470    1.9956   -3.8970 C   0  0  0  0  0  0  0  0  0  0  0  0
    1.9398    1.4350   -4.8139 C   0  0  0  0  0  0  0  0  0  0  0  0
    1.7180    0.1302   -5.2495 C   0  0  0  0  0  0  0  0  0  0  0  0
    0.6085   -0.5634   -4.7530 C   0  0  0  0  0  0  0  0  0  0  0  0
   -0.2580   -0.0333   -3.8831 N   0  0  0  0  0  0  0  0  0  0  0  0
    4.8206   -0.8909   -0.4044 H   0  0  0  0  0  0  0  0  0  0  0  0
    4.9379    0.6091   -1.3875 H   0  0  0  0  0  0  0  0  0  0  0  0
    4.5484    0.7130    0.3664 H   0  0  0  0  0  0  0  0  0  0  0  0
    1.5232   -2.4216   -0.7699 H   0  0  0  0  0  0  0  0  0  0  0  0
    1.9691   -2.7913    0.9027 H   0  0  0  0  0  0  0  0  0  0  0  0
   -0.7309   -2.5252    0.0669 H   0  0  0  0  0  0  0  0  0  0  0  0
   -0.1903   -2.3053    1.7319 H   0  0  0  0  0  0  0  0  0  0  0  0
    1.1266   -0.1250    2.2137 H   0  0  0  0  0  0  0  0  0  0  0  0
    1.2356    1.1498    1.0078 H   0  0  0  0  0  0  0  0  0  0  0  0
   -2.4199   -0.3912    1.2605 H   0  0  0  0  0  0  0  0  0  0  0  0
   -1.2938   -0.1299    2.5868 H   0  0  0  0  0  0  0  0  0  0  0  0
   -2.4738    2.0057    1.8858 H   0  0  0  0  0  0  0  0  0  0  0  0
   -0.7316    2.1292    1.7778 H   0  0  0  0  0  0  0  0  0  0  0  0
   -2.7355    1.6939   -0.5013 H   0  0  0  0  0  0  0  0  0  0  0  0
   -1.7038    3.1102   -0.2453 H   0  0  0  0  0  0  0  0  0  0  0  0
    0.0827   -0.4703   -1.5114 H   0  0  0  0  0  0  0  0  0  0  0  0
   -1.6160   -0.4981   -1.0930 H   0  0  0  0  0  0  0  0  0  0  0  0
   -1.0892    2.8572   -2.5160 H   0  0  0  0  0  0  0  0  0  0  0  0
   -2.0294    1.3542   -2.7009 H   0  0  0  0  0  0  0  0  0  0  0  0
    1.1922    3.0062   -3.5265 H   0  0  0  0  0  0  0  0  0  0  0  0
    2.7886    2.0073   -5.1769 H   0  0  0  0  0  0  0  0  0  0  0  0
    2.3851   -0.3485   -5.9596 H   0  0  0  0  0  0  0  0  0  0  0  0
    0.4059   -1.5833   -5.0717 H   0  0  0  0  0  0  0  0  0  0  0  0
  1  2  1  0  0  0  0
  1 23  1  0  0  0  0
  1 24  1  0  0  0  0
  1 25  1  0  0  0  0
  2  3  2  0  0  0  0
  2  4  2  0  0  0  0
  2  5  1  0  0  0  0
  5  6  1  0  0  0  0
  5  9  1  0  0  0  0
  6  7  1  0  0  0  0
  6 26  1  0  0  0  0
  6 27  1  0  0  0  0
  7  8  1  0  0  0  0
  7 28  1  0  0  0  0
  7 29  1  0  0  0  0
  8  9  1  0  0  0  0
  8 10  1  0  0  0  0
  8 15  1  0  0  0  0
  9 30  1  0  0  0  0
  9 31  1  0  0  0  0
 10 11  1  0  0  0  0
 10 32  1  0  0  0  0
 10 33  1  0  0  0  0
 11 12  1  0  0  0  0
 11 34  1  0  0  0  0
 11 35  1  0  0  0  0
 12 13  1  0  0  0  0
 12 36  1  0  0  0  0
 12 37  1  0  0  0  0
 13 14  1  0  0  0  0
 13 15  1  0  0  0  0
 13 16  1  0  0  0  0
 15 38  1  0  0  0  0
 15 39  1  0  0  0  0
 16 17  1  0  0  0  0
 16 40  1  0  0  0  0
 16 41  1  0  0  0  0
 17 18  1  0  0  0  0
 17 22  2  0  0  0  0
 18 19  2  0  0  0  0
 18 42  1  0  0  0  0
 19 20  1  0  0  0  0
 19 43  1  0  0  0  0
 20 21  2  0  0  0  0
 20 44  1  0  0  0  0
 21 22  1  0  0  0  0
 21 45  1  0  0  0  0
M  CHG  1  13   1
M  END
$$$$
