
  -OEChem-12122420533D

 48 50  0     1  0  0  0  0  0999 V2000
   -4.1671   -0.6936   -0.5868 C   0  0  0  0  0  0  0  0  0  0  0  0
   -3.2808   -0.4278   -1.8168 C   0  0  0  0  0  0  0  0  0  0  0  0
   -3.0159    1.0494   -2.0008 C   0  0  0  0  0  0  0  0  0  0  0  0
   -3.8214    1.7850   -2.8755 C   0  0  0  0  0  0  0  0  0  0  0  0
   -3.6752    3.1702   -3.0265 C   0  0  0  0  0  0  0  0  0  0  0  0
   -2.6898    3.8044   -2.2683 C   0  0  0  0  0  0  0  0  0  0  0  0
   -1.8611    3.0944   -1.3844 C   0  0  0  0  0  0  0  0  0  0  0  0
   -2.0126    1.6985   -1.2415 C   0  0  0  0  0  0  0  0  0  0  0  0
   -1.1297    0.9262   -0.3339 C   0  0  0  0  0  0  0  0  0  0  0  0
   -0.1065    0.0391   -0.7758 C   0  0  0  0  0  0  0  0  0  0  0  0
    0.6882   -0.4588    0.4527 C   0  0  2  0  0  0  0  0  0  0  0  0
    1.6809    0.0046    0.4115 H   0  0  0  0  0  0  0  0  0  0  0  0
    0.7971   -1.9873    0.5343 C   0  0  0  0  0  0  0  0  0  0  0  0
   -0.4698   -2.4289    1.2883 C   0  0  1  0  0  0  0  0  0  0  0  0
   -0.6876   -1.3089    2.3187 C   0  0  0  0  0  0  0  0  0  0  0  0
   -0.1450   -0.0089    1.6667 C   0  0  2  0  0  0  0  0  0  0  0  0
    0.4221    0.5747    2.4006 H   0  0  0  0  0  0  0  0  0  0  0  0
   -1.2431    0.9028    1.0838 C   0  0  0  0  0  0  0  0  0  0  0  0
   -2.0768    1.4696    1.8289 O   0  0  0  0  0  0  0  0  0  0  0  0
   -1.6447   -2.4924    0.4715 O   0  0  0  0  0  0  0  0  0  0  0  0
   -1.5634   -3.3977   -0.6121 C   0  0  0  0  0  0  0  0  0  0  0  0
    0.1848   -0.3376   -1.9340 O   0  5  0  0  0  0  0  0  0  0  0  0
   -0.8313    3.8680   -0.5881 C   0  0  0  0  0  0  0  0  0  0  0  0
   -1.4321    4.5145    0.6746 C   0  0  0  0  0  0  0  0  0  0  0  0
   -4.5609    3.9455   -3.9780 C   0  0  0  0  0  0  0  0  0  0  0  0
   -4.3291   -1.7686   -0.4425 H   0  0  0  0  0  0  0  0  0  0  0  0
   -5.1439   -0.2067   -0.7011 H   0  0  0  0  0  0  0  0  0  0  0  0
   -3.6936   -0.3012    0.3157 H   0  0  0  0  0  0  0  0  0  0  0  0
   -3.7724   -0.8226   -2.7163 H   0  0  0  0  0  0  0  0  0  0  0  0
   -2.3340   -0.9555   -1.7050 H   0  0  0  0  0  0  0  0  0  0  0  0
   -4.5869    1.2630   -3.4515 H   0  0  0  0  0  0  0  0  0  0  0  0
   -2.5501    4.8816   -2.3681 H   0  0  0  0  0  0  0  0  0  0  0  0
    0.9145   -2.4407   -0.4536 H   0  0  0  0  0  0  0  0  0  0  0  0
    1.6674   -2.2813    1.1375 H   0  0  0  0  0  0  0  0  0  0  0  0
   -0.3325   -3.4156    1.7648 H   0  0  0  0  0  0  0  0  0  0  0  0
   -1.7411   -1.2210    2.5975 H   0  0  0  0  0  0  0  0  0  0  0  0
   -0.1191   -1.5499    3.2258 H   0  0  0  0  0  0  0  0  0  0  0  0
   -2.5771   -3.5035   -1.0093 H   0  0  0  0  0  0  0  0  0  0  0  0
   -1.2036   -4.3889   -0.2844 H   0  0  0  0  0  0  0  0  0  0  0  0
   -0.9124   -3.0252   -1.4129 H   0  0  0  0  0  0  0  0  0  0  0  0
   -0.0219    3.1934   -0.2962 H   0  0  0  0  0  0  0  0  0  0  0  0
   -0.3939    4.6487   -1.2257 H   0  0  0  0  0  0  0  0  0  0  0  0
   -0.6623    5.0553    1.2416 H   0  0  0  0  0  0  0  0  0  0  0  0
   -1.8670    3.7433    1.3159 H   0  0  0  0  0  0  0  0  0  0  0  0
   -2.2201    5.2296    0.4059 H   0  0  0  0  0  0  0  0  0  0  0  0
   -5.6122    3.9183   -3.6625 H   0  0  0  0  0  0  0  0  0  0  0  0
   -4.2600    4.9972   -4.0323 H   0  0  0  0  0  0  0  0  0  0  0  0
   -4.5192    3.5339   -4.9943 H   0  0  0  0  0  0  0  0  0  0  0  0
  1  2  1  0  0  0  0
  1 26  1  0  0  0  0
  1 27  1  0  0  0  0
  1 28  1  0  0  0  0
  2  3  1  0  0  0  0
  2 29  1  0  0  0  0
  2 30  1  0  0  0  0
  3  4  2  0  0  0  0
  3  8  1  0  0  0  0
  4  5  1  0  0  0  0
  4 31  1  0  0  0  0
  5  6  2  0  0  0  0
  5 25  1  0  0  0  0
  6  7  1  0  0  0  0
  6 32  1  0  0  0  0
  7  8  2  0  0  0  0
  7 23  1  0  0  0  0
  8  9  1  0  0  0  0
  9 10  2  0  0  0  0
  9 18  1  0  0  0  0
 10 11  1  0  0  0  0
 10 22  1  0  0  0  0
 11 12  1  0  0  0  0
 11 13  1  0  0  0  0
 11 16  1  0  0  0  0
 13 14  1  0  0  0  0
 13 33  1  0  0  0  0
 13 34  1  0  0  0  0
 14 15  1  0  0  0  0
 14 20  1  0  0  0  0
 14 35  1  0  0  0  0
 15 16  1  0  0  0  0
 15 36  1  0  0  0  0
 15 37  1  0  0  0  0
 16 17  1  0  0  0  0
 16 18  1  0  0  0  0
 18 19  2  0  0  0  0
 20 21  1  0  0  0  0
 21 38  1  0  0  0  0
 21 39  1  0  0  0  0
 21 40  1  0  0  0  0
 23 24  1  0  0  0  0
 23 41  1  0  0  0  0
 23 42  1  0  0  0  0
 24 43  1  0  0  0  0
 24 44  1  0  0  0  0
 24 45  1  0  0  0  0
 25 46  1  0  0  0  0
 25 47  1  0  0  0  0
 25 48  1  0  0  0  0
M  CHG  1  22  -1
M  END
$$$$
