
  -OEChem-12122420533D

 53 55  0     0  0  0  0  0  0999 V2000
    1.6803   -5.8448    2.7652 C   0  0  0  0  0  0  0  0  0  0  0  0
    0.1841   -5.7226    1.7450 S   0  0  0  0  0  0  0  0  0  0  0  0
   -0.9520   -6.1219    2.5967 O   0  0  0  0  0  0  0  0  0  0  0  0
    0.4595   -6.4878    0.5136 O   0  0  0  0  0  0  0  0  0  0  0  0
    0.1440   -3.9734    1.3253 C   0  0  0  0  0  0  0  0  0  0  0  0
    0.6696   -3.6539    0.0702 C   0  0  0  0  0  0  0  0  0  0  0  0
    0.7963   -2.3200   -0.2996 C   0  0  0  0  0  0  0  0  0  0  0  0
    0.3916   -1.2922    0.5571 C   0  0  0  0  0  0  0  0  0  0  0  0
   -0.1509   -1.6469    1.8004 C   0  0  0  0  0  0  0  0  0  0  0  0
   -0.2887   -2.9741    2.2267 C   0  0  0  0  0  0  0  0  0  0  0  0
   -0.9030   -3.3000    3.5694 C   0  0  0  0  0  0  0  0  0  0  0  0
   -2.3027   -3.4891    3.3879 O   0  0  0  0  0  0  0  0  0  0  0  0
   -2.9179   -4.3024    4.3832 C   0  0  0  0  0  0  0  0  0  0  0  0
   -4.2639   -4.7505    3.8184 C   0  0  0  0  0  0  0  0  0  0  0  0
   -5.0354   -5.6097    4.8297 C   0  0  0  0  0  0  0  0  0  0  0  0
   -5.2104   -4.8817    6.1710 C   0  0  0  0  0  0  0  0  0  0  0  0
   -3.8567   -4.4227    6.7330 C   0  0  0  0  0  0  0  0  0  0  0  0
   -3.0914   -3.5614    5.7163 C   0  0  0  0  0  0  0  0  0  0  0  0
   -0.7220   -0.3358    2.8291 Cl  0  0  0  0  0  0  0  0  0  0  0  0
    0.8059    0.1400    0.2158 C   0  0  0  0  0  0  0  0  0  0  0  0
   -0.0298    0.9285   -0.6618 C   0  0  0  0  0  0  0  0  0  0  0  0
   -1.3420    0.4178   -1.0004 C   0  0  0  0  0  0  0  0  0  0  0  0
   -1.8274   -0.6346   -0.5358 O   0  0  0  0  0  0  0  0  0  0  0  0
   -2.2228    1.2123   -1.9690 C   0  0  0  0  0  0  0  0  0  0  0  0
   -1.4353    2.1243   -2.9050 C   0  0  0  0  0  0  0  0  0  0  0  0
   -0.5094    3.0110   -2.0764 C   0  0  0  0  0  0  0  0  0  0  0  0
    0.4384    2.2194   -1.1590 C   0  0  0  0  0  0  0  0  0  0  0  0
    1.5326    2.7368   -0.8957 O   0  0  0  0  0  0  0  0  0  0  0  0
    1.9003    0.4488    0.7070 O   0  5  0  0  0  0  0  0  0  0  0  0
    2.5315   -5.5175    2.1669 H   0  0  0  0  0  0  0  0  0  0  0  0
    1.5663   -5.2196    3.6518 H   0  0  0  0  0  0  0  0  0  0  0  0
    1.7791   -6.8963    3.0441 H   0  0  0  0  0  0  0  0  0  0  0  0
    0.9762   -4.4518   -0.5975 H   0  0  0  0  0  0  0  0  0  0  0  0
    1.2099   -2.0589   -1.2697 H   0  0  0  0  0  0  0  0  0  0  0  0
   -0.4644   -4.2114    3.9888 H   0  0  0  0  0  0  0  0  0  0  0  0
   -0.7099   -2.4809    4.2695 H   0  0  0  0  0  0  0  0  0  0  0  0
   -2.2940   -5.1951    4.5431 H   0  0  0  0  0  0  0  0  0  0  0  0
   -4.8463   -3.8565    3.5606 H   0  0  0  0  0  0  0  0  0  0  0  0
   -4.0828   -5.2995    2.8895 H   0  0  0  0  0  0  0  0  0  0  0  0
   -6.0132   -5.8871    4.4172 H   0  0  0  0  0  0  0  0  0  0  0  0
   -4.4900   -6.5488    4.9981 H   0  0  0  0  0  0  0  0  0  0  0  0
   -5.8536   -4.0029    6.0229 H   0  0  0  0  0  0  0  0  0  0  0  0
   -5.7219   -5.5300    6.8940 H   0  0  0  0  0  0  0  0  0  0  0  0
   -3.9995   -3.8660    7.6675 H   0  0  0  0  0  0  0  0  0  0  0  0
   -3.2546   -5.3073    6.9851 H   0  0  0  0  0  0  0  0  0  0  0  0
   -2.1130   -3.2785    6.1224 H   0  0  0  0  0  0  0  0  0  0  0  0
   -3.6382   -2.6296    5.5223 H   0  0  0  0  0  0  0  0  0  0  0  0
   -2.8385    0.4855   -2.5078 H   0  0  0  0  0  0  0  0  0  0  0  0
   -2.9097    1.8150   -1.3573 H   0  0  0  0  0  0  0  0  0  0  0  0
   -0.8370    1.5147   -3.5953 H   0  0  0  0  0  0  0  0  0  0  0  0
   -2.1137    2.7312   -3.5198 H   0  0  0  0  0  0  0  0  0  0  0  0
    0.1184    3.6558   -2.6986 H   0  0  0  0  0  0  0  0  0  0  0  0
   -1.1123    3.6712   -1.4356 H   0  0  0  0  0  0  0  0  0  0  0  0
  1  2  1  0  0  0  0
  1 30  1  0  0  0  0
  1 31  1  0  0  0  0
  1 32  1  0  0  0  0
  2  3  2  0  0  0  0
  2  4  2  0  0  0  0
  2  5  1  0  0  0  0
  5  6  2  0  0  0  0
  5 10  1  0  0  0  0
  6  7  1  0  0  0  0
  6 33  1  0  0  0  0
  7  8  2  0  0  0  0
  7 34  1  0  0  0  0
  8  9  1  0  0  0  0
  8 20  1  0  0  0  0
  9 10  2  0  0  0  0
  9 19  1  0  0  0  0
 10 11  1  0  0  0  0
 11 12  1  0  0  0  0
 11 35  1  0  0  0  0
 11 36  1  0  0  0  0
 12 13  1  0  0  0  0
 13 14  1  0  0  0  0
 13 18  1  0  0  0  0
 13 37  1  0  0  0  0
 14 15  1  0  0  0  0
 14 38  1  0  0  0  0
 14 39  1  0  0  0  0
 15 16  1  0  0  0  0
 15 40  1  0  0  0  0
 15 41  1  0  0  0  0
 16 17  1  0  0  0  0
 16 42  1  0  0  0  0
 16 43  1  0  0  0  0
 17 18  1  0  0  0  0
 17 44  1  0  0  0  0
 17 45  1  0  0  0  0
 18 46  1  0  0  0  0
 18 47  1  0  0  0  0
 20 21  2  0  0  0  0
 20 29  1  0  0  0  0
 21 22  1  0  0  0  0
 21 27  1  0  0  0  0
 22 23  2  0  0  0  0
 22 24  1  0  0  0  0
 24 25  1  0  0  0  0
 24 48  1  0  0  0  0
 24 49  1  0  0  0  0
 25 26  1  0  0  0  0
 25 50  1  0  0  0  0
 25 51  1  0  0  0  0
 26 27  1  0  0  0  0
 26 52  1  0  0  0  0
 26 53  1  0  0  0  0
 27 28  2  0  0  0  0
M  CHG  1  29  -1
M  END
$$$$
