
  -OEChem-12102412493D

 48 51  0     1  0  0  0  0  0999 V2000
    2.9998   -0.3679   -0.1373 C   0  0  0  0  0  0  0  0  0  0  0  0
    1.5616    0.0368    0.0479 N   0  3  1  0  0  0  0  0  0  0  0  0
    1.5530    0.8336    0.6895 H   0  0  0  0  0  0  0  0  0  0  0  0
    0.9648    0.5401   -1.2560 C   0  0  0  0  0  0  0  0  0  0  0  0
   -0.4524    1.1288   -1.0981 C   0  0  2  0  0  0  0  0  0  0  0  0
   -0.5361    1.9197   -1.8490 H   0  0  0  0  0  0  0  0  0  0  0  0
   -0.7090    1.7309    0.2982 C   0  0  0  0  0  0  0  0  0  0  0  0
   -1.0760    0.6172    1.3186 C   0  0  0  0  0  0  0  0  0  0  0  0
   -0.7364   -0.7910    0.7857 C   0  0  2  0  0  0  0  0  0  0  0  0
   -1.1175   -1.5240    1.5032 H   0  0  0  0  0  0  0  0  0  0  0  0
    0.7750   -1.0696    0.7234 C   0  0  0  0  0  0  0  0  0  0  0  0
   -1.3355   -1.0714   -0.5183 N   0  0  2  0  0  0  0  0  0  0  0  0
   -1.5309    0.0825   -1.3870 C   0  0  0  0  0  0  0  0  0  0  0  0
   -2.4163   -2.0525   -0.5682 C   0  0  0  0  0  0  0  0  0  0  0  0
   -2.4819   -2.7181   -1.9041 C   0  0  0  0  0  0  0  0  0  0  0  0
   -3.4637   -2.8757   -2.8442 C   0  0  0  0  0  0  0  0  0  0  0  0
   -2.8883   -3.6348   -3.9140 C   0  0  0  0  0  0  0  0  0  0  0  0
   -1.5837   -3.8866   -3.5605 C   0  0  0  0  0  0  0  0  0  0  0  0
   -1.3333   -3.3305   -2.3295 O   0  0  0  0  0  0  0  0  0  0  0  0
   -0.4941   -4.5816   -4.2294 C   0  0  0  0  0  0  0  0  0  0  0  0
   -0.7947   -5.5148   -5.2381 C   0  0  0  0  0  0  0  0  0  0  0  0
    0.2101   -6.2016   -5.9140 C   0  0  0  0  0  0  0  0  0  0  0  0
    1.5573   -5.9865   -5.5947 C   0  0  0  0  0  0  0  0  0  0  0  0
    1.8852   -5.0698   -4.6018 C   0  0  0  0  0  0  0  0  0  0  0  0
    0.8743   -4.3620   -3.9215 C   0  0  0  0  0  0  0  0  0  0  0  0
    1.3086   -3.3932   -2.9578 C   0  0  0  0  0  0  0  0  0  0  0  0
    1.7394   -2.6093   -2.2104 N   0  0  0  0  0  0  0  0  0  0  0  0
    3.0232   -1.1890   -0.8517 H   0  0  0  0  0  0  0  0  0  0  0  0
    3.5600    0.4896   -0.5118 H   0  0  0  0  0  0  0  0  0  0  0  0
    3.4002   -0.6824    0.8272 H   0  0  0  0  0  0  0  0  0  0  0  0
    1.6614    1.3077   -1.6019 H   0  0  0  0  0  0  0  0  0  0  0  0
    0.9917   -0.3024   -1.9472 H   0  0  0  0  0  0  0  0  0  0  0  0
    0.1474    2.3300    0.6366 H   0  0  0  0  0  0  0  0  0  0  0  0
   -1.5351    2.4417    0.2200 H   0  0  0  0  0  0  0  0  0  0  0  0
   -0.5891    0.7841    2.2860 H   0  0  0  0  0  0  0  0  0  0  0  0
   -2.1511    0.6418    1.5148 H   0  0  0  0  0  0  0  0  0  0  0  0
    0.9587   -1.9750    0.1456 H   0  0  0  0  0  0  0  0  0  0  0  0
    1.2070   -1.1688    1.7237 H   0  0  0  0  0  0  0  0  0  0  0  0
   -2.5222    0.5513   -1.2485 H   0  0  0  0  0  0  0  0  0  0  0  0
   -1.4799   -0.2464   -2.4310 H   0  0  0  0  0  0  0  0  0  0  0  0
   -3.4070   -1.6145   -0.3590 H   0  0  0  0  0  0  0  0  0  0  0  0
   -2.2258   -2.8105    0.1995 H   0  0  0  0  0  0  0  0  0  0  0  0
   -4.4745   -2.4940   -2.7842 H   0  0  0  0  0  0  0  0  0  0  0  0
   -3.3732   -3.9257   -4.8360 H   0  0  0  0  0  0  0  0  0  0  0  0
   -1.8342   -5.7178   -5.4754 H   0  0  0  0  0  0  0  0  0  0  0  0
   -0.0572   -6.9192   -6.6844 H   0  0  0  0  0  0  0  0  0  0  0  0
    2.3406   -6.5292   -6.1146 H   0  0  0  0  0  0  0  0  0  0  0  0
    2.9235   -4.8835   -4.3456 H   0  0  0  0  0  0  0  0  0  0  0  0
  1  2  1  0  0  0  0
  1 28  1  0  0  0  0
  1 29  1  0  0  0  0
  1 30  1  0  0  0  0
  2  3  1  0  0  0  0
  2  4  1  0  0  0  0
  2 11  1  0  0  0  0
  4  5  1  0  0  0  0
  4 31  1  0  0  0  0
  4 32  1  0  0  0  0
  5  6  1  0  0  0  0
  5  7  1  0  0  0  0
  5 13  1  0  0  0  0
  7  8  1  0  0  0  0
  7 33  1  0  0  0  0
  7 34  1  0  0  0  0
  8  9  1  0  0  0  0
  8 35  1  0  0  0  0
  8 36  1  0  0  0  0
  9 10  1  0  0  0  0
  9 11  1  0  0  0  0
  9 12  1  0  0  0  0
 11 37  1  0  0  0  0
 11 38  1  0  0  0  0
 12 13  1  0  0  0  0
 12 14  1  0  0  0  0
 13 39  1  0  0  0  0
 13 40  1  0  0  0  0
 14 15  1  0  0  0  0
 14 41  1  0  0  0  0
 14 42  1  0  0  0  0
 15 16  2  0  0  0  0
 15 19  1  0  0  0  0
 16 17  1  0  0  0  0
 16 43  1  0  0  0  0
 17 18  2  0  0  0  0
 17 44  1  0  0  0  0
 18 19  1  0  0  0  0
 18 20  1  0  0  0  0
 20 21  1  0  0  0  0
 20 25  2  0  0  0  0
 21 22  2  0  0  0  0
 21 45  1  0  0  0  0
 22 23  1  0  0  0  0
 22 46  1  0  0  0  0
 23 24  2  0  0  0  0
 23 47  1  0  0  0  0
 24 25  1  0  0  0  0
 24 48  1  0  0  0  0
 25 26  1  0  0  0  0
 26 27  3  0  0  0  0
M  CHG  1   2   1
M  END
$$$$
