
  -OEChem-12122420533D

 53 55  0     0  0  0  0  0  0999 V2000
    1.2445   -6.3562    2.4279 C   0  0  0  0  0  0  0  0  0  0  0  0
   -0.0596   -5.8117    1.2946 S   0  0  0  0  0  0  0  0  0  0  0  0
   -1.3572   -6.1613    1.9086 O   0  0  0  0  0  0  0  0  0  0  0  0
    0.2726   -6.3782   -0.0266 O   0  0  0  0  0  0  0  0  0  0  0  0
    0.1790   -4.0303    1.2245 C   0  0  0  0  0  0  0  0  0  0  0  0
    0.7483   -3.5602    0.0360 C   0  0  0  0  0  0  0  0  0  0  0  0
    1.0512   -2.2107   -0.0890 C   0  0  0  0  0  0  0  0  0  0  0  0
    0.8380   -1.3259    0.9719 C   0  0  0  0  0  0  0  0  0  0  0  0
    0.2392   -1.8213    2.1368 C   0  0  0  0  0  0  0  0  0  0  0  0
   -0.1113   -3.1683    2.3069 C   0  0  0  0  0  0  0  0  0  0  0  0
   -0.7849   -3.6142    3.5982 C   0  0  0  0  0  0  0  0  0  0  0  0
   -2.0773   -3.0409    3.7688 O   0  0  0  0  0  0  0  0  0  0  0  0
   -3.0568   -3.4518    2.8020 C   0  0  0  0  0  0  0  0  0  0  0  0
   -3.9503   -2.2485    2.5087 C   0  0  0  0  0  0  0  0  0  0  0  0
   -5.0605   -2.6189    1.5141 C   0  0  0  0  0  0  0  0  0  0  0  0
   -5.8760   -3.8271    1.9998 C   0  0  0  0  0  0  0  0  0  0  0  0
   -4.9667   -5.0253    2.3127 C   0  0  0  0  0  0  0  0  0  0  0  0
   -3.8658   -4.6457    3.3141 C   0  0  0  0  0  0  0  0  0  0  0  0
   -0.0106   -0.6903    3.4588 Cl  0  0  0  0  0  0  0  0  0  0  0  0
    1.0616    0.1651    0.7257 C   0  0  0  0  0  0  0  0  0  0  0  0
    2.3533    0.7437    1.0337 C   0  0  0  0  0  0  0  0  0  0  0  0
    3.3510   -0.0827    1.6793 C   0  0  0  0  0  0  0  0  0  0  0  0
    3.1697   -1.2678    2.0357 O   0  0  0  0  0  0  0  0  0  0  0  0
    4.7291    0.5139    1.9809 C   0  0  0  0  0  0  0  0  0  0  0  0
    5.1106    1.6729    1.0656 C   0  0  0  0  0  0  0  0  0  0  0  0
    3.9962    2.7147    1.0926 C   0  0  0  0  0  0  0  0  0  0  0  0
    2.6167    2.1466    0.7172 C   0  0  0  0  0  0  0  0  0  0  0  0
    1.8144    2.9242    0.1843 O   0  0  0  0  0  0  0  0  0  0  0  0
    0.0797    0.7240    0.2193 O   0  5  0  0  0  0  0  0  0  0  0  0
    2.2046   -6.0434    2.0157 H   0  0  0  0  0  0  0  0  0  0  0  0
    1.0814   -5.9131    3.4106 H   0  0  0  0  0  0  0  0  0  0  0  0
    1.1737   -7.4451    2.4766 H   0  0  0  0  0  0  0  0  0  0  0  0
    0.9424   -4.2569   -0.7721 H   0  0  0  0  0  0  0  0  0  0  0  0
    1.4888   -1.8314   -1.0081 H   0  0  0  0  0  0  0  0  0  0  0  0
   -0.8483   -4.7029    3.6545 H   0  0  0  0  0  0  0  0  0  0  0  0
   -0.1997   -3.2545    4.4483 H   0  0  0  0  0  0  0  0  0  0  0  0
   -2.5552   -3.7462    1.8722 H   0  0  0  0  0  0  0  0  0  0  0  0
   -4.3903   -1.9026    3.4538 H   0  0  0  0  0  0  0  0  0  0  0  0
   -3.3332   -1.4309    2.1229 H   0  0  0  0  0  0  0  0  0  0  0  0
   -5.7170   -1.7562    1.3471 H   0  0  0  0  0  0  0  0  0  0  0  0
   -4.6074   -2.8580    0.5422 H   0  0  0  0  0  0  0  0  0  0  0  0
   -6.4274   -3.5467    2.9090 H   0  0  0  0  0  0  0  0  0  0  0  0
   -6.6266   -4.1044    1.2485 H   0  0  0  0  0  0  0  0  0  0  0  0
   -5.5594   -5.8622    2.7031 H   0  0  0  0  0  0  0  0  0  0  0  0
   -4.4960   -5.3808    1.3867 H   0  0  0  0  0  0  0  0  0  0  0  0
   -3.1971   -5.4948    3.4803 H   0  0  0  0  0  0  0  0  0  0  0  0
   -4.3116   -4.3707    4.2799 H   0  0  0  0  0  0  0  0  0  0  0  0
    4.7071    0.8602    3.0245 H   0  0  0  0  0  0  0  0  0  0  0  0
    5.4479   -0.3103    1.9383 H   0  0  0  0  0  0  0  0  0  0  0  0
    6.0687    2.1136    1.3730 H   0  0  0  0  0  0  0  0  0  0  0  0
    5.2422    1.3038    0.0397 H   0  0  0  0  0  0  0  0  0  0  0  0
    3.9134    3.1357    2.1055 H   0  0  0  0  0  0  0  0  0  0  0  0
    4.1886    3.5507    0.4138 H   0  0  0  0  0  0  0  0  0  0  0  0
  1  2  1  0  0  0  0
  1 30  1  0  0  0  0
  1 31  1  0  0  0  0
  1 32  1  0  0  0  0
  2  3  2  0  0  0  0
  2  4  2  0  0  0  0
  2  5  1  0  0  0  0
  5  6  2  0  0  0  0
  5 10  1  0  0  0  0
  6  7  1  0  0  0  0
  6 33  1  0  0  0  0
  7  8  2  0  0  0  0
  7 34  1  0  0  0  0
  8  9  1  0  0  0  0
  8 20  1  0  0  0  0
  9 10  2  0  0  0  0
  9 19  1  0  0  0  0
 10 11  1  0  0  0  0
 11 12  1  0  0  0  0
 11 35  1  0  0  0  0
 11 36  1  0  0  0  0
 12 13  1  0  0  0  0
 13 14  1  0  0  0  0
 13 18  1  0  0  0  0
 13 37  1  0  0  0  0
 14 15  1  0  0  0  0
 14 38  1  0  0  0  0
 14 39  1  0  0  0  0
 15 16  1  0  0  0  0
 15 40  1  0  0  0  0
 15 41  1  0  0  0  0
 16 17  1  0  0  0  0
 16 42  1  0  0  0  0
 16 43  1  0  0  0  0
 17 18  1  0  0  0  0
 17 44  1  0  0  0  0
 17 45  1  0  0  0  0
 18 46  1  0  0  0  0
 18 47  1  0  0  0  0
 20 21  2  0  0  0  0
 20 29  1  0  0  0  0
 21 22  1  0  0  0  0
 21 27  1  0  0  0  0
 22 23  2  0  0  0  0
 22 24  1  0  0  0  0
 24 25  1  0  0  0  0
 24 48  1  0  0  0  0
 24 49  1  0  0  0  0
 25 26  1  0  0  0  0
 25 50  1  0  0  0  0
 25 51  1  0  0  0  0
 26 27  1  0  0  0  0
 26 52  1  0  0  0  0
 26 53  1  0  0  0  0
 27 28  2  0  0  0  0
M  CHG  1  29  -1
M  END
$$$$
