
  -OEChem-12122420533D

 45 47  0     1  0  0  0  0  0999 V2000
   -3.6809   -1.5595    2.9752 C   0  0  0  0  0  0  0  0  0  0  0  0
   -2.8855   -0.8820    1.5170 S   0  0  0  0  0  0  0  0  0  0  0  0
   -3.4529   -1.5479    0.3380 O   0  0  0  0  0  0  0  0  0  0  0  0
   -2.8917    0.5846    1.6099 O   0  0  0  0  0  0  0  0  0  0  0  0
   -1.2563   -1.3791    1.7302 N   0  0  1  0  0  0  0  0  0  0  0  0
   -0.8162   -2.5902    0.9774 C   0  0  0  0  0  0  0  0  0  0  0  0
    0.4598   -2.1576    0.2131 C   0  0  0  0  0  0  0  0  0  0  0  0
    0.3748   -0.6180    0.1592 C   0  0  2  0  0  0  0  0  0  0  0  0
   -0.2399   -0.3314    1.5500 C   0  0  0  0  0  0  0  0  0  0  0  0
   -0.5251   -0.1509   -1.0041 C   0  0  0  0  0  0  0  0  0  0  0  0
   -0.6087    1.3753   -1.0912 C   0  0  0  0  0  0  0  0  0  0  0  0
    0.7768    2.0074   -1.1730 C   0  0  0  0  0  0  0  0  0  0  0  0
    1.6446    1.5293   -0.0334 N   0  3  1  0  0  0  0  0  0  0  0  0
    1.2189    1.8173    0.8734 H   0  0  0  0  0  0  0  0  0  0  0  0
    1.7520    0.0196    0.0065 C   0  0  0  0  0  0  0  0  0  0  0  0
    2.9936    2.1851    0.0269 C   0  0  0  0  0  0  0  0  0  0  0  0
    3.3903    2.3290    1.4883 C   0  0  0  0  0  0  0  0  0  0  0  0
    4.7136    2.5186    1.8842 C   0  0  0  0  0  0  0  0  0  0  0  0
    4.9712    2.7047    3.2453 C   0  0  0  0  0  0  0  0  0  0  0  0
    3.9042    2.6864    4.1475 C   0  0  0  0  0  0  0  0  0  0  0  0
    2.6148    2.4778    3.6542 C   0  0  0  0  0  0  0  0  0  0  0  0
    2.3623    2.3034    2.3483 N   0  0  0  0  0  0  0  0  0  0  0  0
   -3.2252   -1.1067    3.8552 H   0  0  0  0  0  0  0  0  0  0  0  0
   -4.7393   -1.3030    2.9024 H   0  0  0  0  0  0  0  0  0  0  0  0
   -3.5478   -2.6418    2.9687 H   0  0  0  0  0  0  0  0  0  0  0  0
   -0.6082   -3.4029    1.6772 H   0  0  0  0  0  0  0  0  0  0  0  0
   -1.6052   -2.9111    0.2955 H   0  0  0  0  0  0  0  0  0  0  0  0
    1.3528   -2.4665    0.7678 H   0  0  0  0  0  0  0  0  0  0  0  0
    0.5118   -2.6094   -0.7807 H   0  0  0  0  0  0  0  0  0  0  0  0
   -0.6918    0.6517    1.6723 H   0  0  0  0  0  0  0  0  0  0  0  0
    0.5266   -0.4511    2.3264 H   0  0  0  0  0  0  0  0  0  0  0  0
   -0.1090   -0.5493   -1.9384 H   0  0  0  0  0  0  0  0  0  0  0  0
   -1.5295   -0.5699   -0.9156 H   0  0  0  0  0  0  0  0  0  0  0  0
   -1.1650    1.6743   -1.9843 H   0  0  0  0  0  0  0  0  0  0  0  0
   -1.1614    1.7792   -0.2368 H   0  0  0  0  0  0  0  0  0  0  0  0
    1.2960    1.7335   -2.0962 H   0  0  0  0  0  0  0  0  0  0  0  0
    0.7346    3.0967   -1.1049 H   0  0  0  0  0  0  0  0  0  0  0  0
    2.4093   -0.2261    0.8440 H   0  0  0  0  0  0  0  0  0  0  0  0
    2.2374   -0.2837   -0.9257 H   0  0  0  0  0  0  0  0  0  0  0  0
    2.9078    3.1695   -0.4410 H   0  0  0  0  0  0  0  0  0  0  0  0
    3.7082    1.5933   -0.5475 H   0  0  0  0  0  0  0  0  0  0  0  0
    5.5186    2.5254    1.1544 H   0  0  0  0  0  0  0  0  0  0  0  0
    5.9881    2.8582    3.5947 H   0  0  0  0  0  0  0  0  0  0  0  0
    4.0636    2.8263    5.2118 H   0  0  0  0  0  0  0  0  0  0  0  0
    1.7557    2.4493    4.3198 H   0  0  0  0  0  0  0  0  0  0  0  0
  1  2  1  0  0  0  0
  1 23  1  0  0  0  0
  1 24  1  0  0  0  0
  1 25  1  0  0  0  0
  2  3  2  0  0  0  0
  2  4  2  0  0  0  0
  2  5  1  0  0  0  0
  5  6  1  0  0  0  0
  5  9  1  0  0  0  0
  6  7  1  0  0  0  0
  6 26  1  0  0  0  0
  6 27  1  0  0  0  0
  7  8  1  0  0  0  0
  7 28  1  0  0  0  0
  7 29  1  0  0  0  0
  8  9  1  0  0  0  0
  8 10  1  0  0  0  0
  8 15  1  0  0  0  0
  9 30  1  0  0  0  0
  9 31  1  0  0  0  0
 10 11  1  0  0  0  0
 10 32  1  0  0  0  0
 10 33  1  0  0  0  0
 11 12  1  0  0  0  0
 11 34  1  0  0  0  0
 11 35  1  0  0  0  0
 12 13  1  0  0  0  0
 12 36  1  0  0  0  0
 12 37  1  0  0  0  0
 13 14  1  0  0  0  0
 13 15  1  0  0  0  0
 13 16  1  0  0  0  0
 15 38  1  0  0  0  0
 15 39  1  0  0  0  0
 16 17  1  0  0  0  0
 16 40  1  0  0  0  0
 16 41  1  0  0  0  0
 17 18  1  0  0  0  0
 17 22  2  0  0  0  0
 18 19  2  0  0  0  0
 18 42  1  0  0  0  0
 19 20  1  0  0  0  0
 19 43  1  0  0  0  0
 20 21  2  0  0  0  0
 20 44  1  0  0  0  0
 21 22  1  0  0  0  0
 21 45  1  0  0  0  0
M  CHG  1  13   1
M  END
$$$$
