48
-1 1 C20H25O3
C                    -4.062591905025    -0.685587177182    -0.541559851564
C                    -3.310665337012    -0.416636109007    -1.857898878944
C                    -3.001778825821     1.052955739561    -2.054744651985
C                    -3.795087305713     1.800011300143    -2.930105000617
C                    -3.591972216797     3.173410955806    -3.121706759793
C                    -2.554812491059     3.778823176438    -2.411845530736
C                    -1.735078769261     3.059700361924    -1.526428994731
C                    -1.954250930994     1.678393634544    -1.331592920318
C                    -1.106635084221     0.884931677385    -0.412624432448
C                    -1.026737596449     1.084582804031     0.995961919902
C                     0.006634882077     0.107903456090     1.592748885382
H                    -0.483719565330    -0.464206499652     2.387977236070
C                     1.275178983630     0.816284105522     2.138377321222
C                     2.312254633693     0.733272155860     1.007778071300
C                     2.007756694945    -0.626671142472     0.354276861065
C                     0.476403002463    -0.752020438758     0.404265623313
H                     0.169277889367    -1.802175550267     0.472638552205
C                    -0.213309518543    -0.137712849759    -0.831760348140
O                     0.051094605033    -0.548547356167    -1.987137299639
O                     2.095931540895     1.872378241658     0.165277754164
C                     2.699824594299     1.820325312572    -1.115920953619
O                    -1.647835211701     1.891102055402     1.724160779759
C                    -0.618530703605     3.806228899046    -0.824337552947
C                    -1.129423354658     4.731947036946     0.294558217988
C                    -4.475131605619     3.966604027440    -4.060585217417
H                    -4.248017467640    -1.759462942914    -0.406883595269
H                    -5.029318906039    -0.167489534984    -0.531265761993
H                    -3.481341058565    -0.326285397494     0.311573725985
H                    -3.922597063214    -0.767815219599    -2.699134536633
H                    -2.381619976233    -0.990675931702    -1.880564570773
H                    -4.593613483487     1.297442490195    -3.477711008736
H                    -2.361760489986     4.842837063378    -2.555069078505
H                     1.076966224144     1.851210311839     2.430539107294
H                     1.664967667861     0.284585693533     3.015974295545
H                     3.350764941383     0.774486440275     1.380021477646
H                     2.396663515938    -0.742112606217    -0.660779682928
H                     2.479701940335    -1.400992172534     0.974744093964
H                     2.613970719595     2.826655163433    -1.536642405945
H                     2.186619364750     1.117309990879    -1.782581864440
H                     3.768253306163     1.551997350563    -1.050731359032
H                     0.094869403341     3.096711926223    -0.404013634418
H                    -0.075980369888     4.406457686022    -1.569449519719
H                    -0.292198770267     5.256514722520     0.773622521436
H                    -1.645040727395     4.135214365048     1.050742249499
H                    -1.822297577204     5.487032808782    -0.099075092140
H                    -5.481517274092     4.108252950209    -3.644048588433
H                    -4.057530462591     4.960671265382    -4.253332280122
H                    -4.594710801226     3.460625919227    -5.026461296183
