49
1 1 C17H26N3O2S
C                    -0.202959918283    -7.049114144396     0.637796807571
C                    -0.506931262205    -8.228929711300     1.262589762536
S                    -1.576624072591    -7.940292303661     2.594590271017
C                    -1.543106718331    -6.246092087625     2.202353486007
N                    -0.796434387885    -5.929611703540     1.178169645858
C                    -2.339638511866    -5.206031576463     2.939027319980
N                    -1.622996617701    -3.896564433757     2.889972428506
H                    -1.313662036290    -3.682739030934     1.913416976825
C                    -2.448709930852    -2.711707030435     3.353569913981
C                    -1.437678245223    -1.706468824533     3.941253951916
C                    -0.023867781364    -2.316168671764     3.689949779527
C                    -0.330651892664    -3.820777520473     3.656104928076
C                     0.997742320752    -1.977095516471     4.777729602385
C                     1.475148039944    -0.540135613436     4.597054950434
C                     2.170808586882    -0.391965544648     3.250758386225
N                     1.416608948745    -0.988239499281     2.131264951965
C                     0.420482576441    -1.880345089233     2.275524803341
O                    -0.201513549964    -2.360280254325     1.301823701783
C                     1.890856358423    -0.599501898576     0.772877185918
C                     2.429770546188    -1.779595886777    -0.046788933491
C                     2.920997125265    -1.259498849032    -1.403904684525
O                     1.891338036687    -0.571102899759    -2.105304438777
C                     1.434134297817     0.570485926758    -1.388189243224
C                     0.841874607419     0.184312300766    -0.026777996726
H                     0.447627319432    -6.947373607813    -0.223068424742
H                    -0.173348458058    -9.229816985133     1.021531762722
H                    -3.313925105673    -5.056595403572     2.463063185345
H                    -2.506665318421    -5.470650974620     3.985922504075
H                    -2.996040063016    -2.333726882742     2.490586507005
H                    -3.159332735877    -3.069128188401     4.100254018620
H                    -1.549670944667    -0.722672455867     3.484534526613
H                    -1.599831684217    -1.595657158663     5.016394731646
H                    -0.503278055580    -4.207084769003     4.664989286669
H                     0.416928617002    -4.426138850133     3.145422365667
H                     0.553577100886    -2.129396316106     5.767107160758
H                     1.855308376578    -2.657724657737     4.702992640188
H                     0.627497457978     0.151206487623     4.661065167772
H                     2.177458254171    -0.259282286147     5.386621242554
H                     2.316033133605     0.667351084906     3.021327907300
H                     3.165311014870    -0.855613264916     3.284393598832
H                     2.733251268751     0.074412216726     0.962816852394
H                     3.257284675846    -2.265640169928     0.484459751954
H                     1.639405667448    -2.514828120318    -0.206179940443
H                     3.789183804751    -0.593578945059    -1.267059034504
H                     3.228669651017    -2.087849041640    -2.045904418590
H                     2.264163850179     1.283956789988    -1.254456208264
H                     0.678088021718     1.045494827734    -2.017117162455
H                    -0.043673593167    -0.435455158774    -0.178979147001
H                     0.545289640715     1.089309631840     0.517337119295
