
  -OEChem-12102412493D

 45 47  0     0  0  0  0  0  0999 V2000
    5.0562   -5.4073   -0.3475 C   0  0  0  0  0  0  0  0  0  0  0  0
    3.6539   -5.3450    0.7904 S   0  0  0  0  0  0  0  0  0  0  0  0
    4.2043   -5.5485    2.1431 O   0  0  0  0  0  0  0  0  0  0  0  0
    2.6231   -6.2708    0.2859 O   0  0  0  0  0  0  0  0  0  0  0  0
    3.0622   -3.6531    0.7073 C   0  0  0  0  0  0  0  0  0  0  0  0
    3.2237   -2.8557    1.8436 C   0  0  0  0  0  0  0  0  0  0  0  0
    2.7315   -1.5557    1.8409 C   0  0  0  0  0  0  0  0  0  0  0  0
    2.0450   -1.0405    0.7357 C   0  0  0  0  0  0  0  0  0  0  0  0
    1.8083   -1.8873   -0.3525 C   0  0  0  0  0  0  0  0  0  0  0  0
    2.3735   -3.1647   -0.4176 C   0  0  0  0  0  0  0  0  0  0  0  0
    2.2582   -3.9588   -1.5410 O   0  0  0  0  0  0  0  0  0  0  0  0
    2.9577   -3.4793   -2.7031 C   0  0  0  0  0  0  0  0  0  0  0  0
    2.5127   -4.3428   -3.8682 C   0  0  0  0  0  0  0  0  0  0  0  0
    3.0126   -5.7143   -3.7876 N   0  0  0  0  0  0  0  0  0  0  0  0
    2.8597   -6.6683   -2.8429 C   0  0  0  0  0  0  0  0  0  0  0  0
    3.5294   -7.7460   -3.2229 N   0  0  0  0  0  0  0  0  0  0  0  0
    4.0939   -7.4334   -4.4239 N   0  0  0  0  0  0  0  0  0  0  0  0
    3.7962   -6.2203   -4.7755 N   0  0  0  0  0  0  0  0  0  0  0  0
    0.7820   -1.3384   -1.6707 Cl  0  0  0  0  0  0  0  0  0  0  0  0
    1.4625    0.3683    0.8478 C   0  0  0  0  0  0  0  0  0  0  0  0
    1.9481    1.4004   -0.0504 C   0  0  0  0  0  0  0  0  0  0  0  0
    3.1474    1.1661   -0.8214 C   0  0  0  0  0  0  0  0  0  0  0  0
    3.8096    0.1016   -0.8119 O   0  0  0  0  0  0  0  0  0  0  0  0
    3.6640    2.2819   -1.7324 C   0  0  0  0  0  0  0  0  0  0  0  0
    3.2889    3.6781   -1.2442 C   0  0  0  0  0  0  0  0  0  0  0  0
    1.7754    3.7530   -1.0737 C   0  0  0  0  0  0  0  0  0  0  0  0
    1.1893    2.6432   -0.1837 C   0  0  0  0  0  0  0  0  0  0  0  0
    0.0844    2.8626    0.3286 O   0  0  0  0  0  0  0  0  0  0  0  0
    0.6213    0.4956    1.7459 O   0  5  0  0  0  0  0  0  0  0  0  0
    4.7108   -5.2318   -1.3638 H   0  0  0  0  0  0  0  0  0  0  0  0
    5.7847   -4.6572   -0.0370 H   0  0  0  0  0  0  0  0  0  0  0  0
    5.4688   -6.4148   -0.2620 H   0  0  0  0  0  0  0  0  0  0  0  0
    3.7327   -3.2692    2.7079 H   0  0  0  0  0  0  0  0  0  0  0  0
    2.8635   -0.9164    2.7081 H   0  0  0  0  0  0  0  0  0  0  0  0
    4.0408   -3.5479   -2.5459 H   0  0  0  0  0  0  0  0  0  0  0  0
    2.7089   -2.4368   -2.9106 H   0  0  0  0  0  0  0  0  0  0  0  0
    2.8985   -3.9378   -4.8049 H   0  0  0  0  0  0  0  0  0  0  0  0
    1.4204   -4.3573   -3.9097 H   0  0  0  0  0  0  0  0  0  0  0  0
    2.3230   -6.5356   -1.9115 H   0  0  0  0  0  0  0  0  0  0  0  0
    4.7458    2.1445   -1.8219 H   0  0  0  0  0  0  0  0  0  0  0  0
    3.2366    2.1142   -2.7322 H   0  0  0  0  0  0  0  0  0  0  0  0
    3.7792    3.8715   -0.2811 H   0  0  0  0  0  0  0  0  0  0  0  0
    3.6436    4.4455   -1.9450 H   0  0  0  0  0  0  0  0  0  0  0  0
    1.4495    4.7047   -0.6435 H   0  0  0  0  0  0  0  0  0  0  0  0
    1.2890    3.6677   -2.0563 H   0  0  0  0  0  0  0  0  0  0  0  0
  1  2  1  0  0  0  0
  1 30  1  0  0  0  0
  1 31  1  0  0  0  0
  1 32  1  0  0  0  0
  2  3  2  0  0  0  0
  2  4  2  0  0  0  0
  2  5  1  0  0  0  0
  5  6  2  0  0  0  0
  5 10  1  0  0  0  0
  6  7  1  0  0  0  0
  6 33  1  0  0  0  0
  7  8  2  0  0  0  0
  7 34  1  0  0  0  0
  8  9  1  0  0  0  0
  8 20  1  0  0  0  0
  9 10  2  0  0  0  0
  9 19  1  0  0  0  0
 10 11  1  0  0  0  0
 11 12  1  0  0  0  0
 12 13  1  0  0  0  0
 12 35  1  0  0  0  0
 12 36  1  0  0  0  0
 13 14  1  0  0  0  0
 13 37  1  0  0  0  0
 13 38  1  0  0  0  0
 14 15  1  0  0  0  0
 14 18  1  0  0  0  0
 15 16  2  0  0  0  0
 15 39  1  0  0  0  0
 16 17  1  0  0  0  0
 17 18  2  0  0  0  0
 20 21  2  0  0  0  0
 20 29  1  0  0  0  0
 21 22  1  0  0  0  0
 21 27  1  0  0  0  0
 22 23  2  0  0  0  0
 22 24  1  0  0  0  0
 24 25  1  0  0  0  0
 24 40  1  0  0  0  0
 24 41  1  0  0  0  0
 25 26  1  0  0  0  0
 25 42  1  0  0  0  0
 25 43  1  0  0  0  0
 26 27  1  0  0  0  0
 26 44  1  0  0  0  0
 26 45  1  0  0  0  0
 27 28  2  0  0  0  0
M  CHG  1  29  -1
M  END
$$$$
