48
1 1 C20H24N3O
C                     2.684888578111     0.101863268654     1.794144608748
N                     1.341259151712     0.309592401840     1.157752724337
H                     0.860112768778     1.029937054783     1.703356844485
C                     1.474268118786     0.850051300217    -0.251725196361
C                     0.145424898507     0.956174461292    -1.010300082261
H                     0.385025745370     1.584424562726    -1.874844170417
C                    -0.959463879752     1.645239004804    -0.187465821225
C                    -1.454955939361     0.743245511124     0.977329997781
C                    -0.977613605015    -0.707849937607     0.788686662010
H                    -1.580787575383    -1.354039665076     1.424974705976
C                     0.478358598012    -0.931779079666     1.269084693116
N                    -1.232795709715    -1.076586184946    -0.600017952192
C                    -0.349964172634    -0.399760155624    -1.553642964686
C                    -1.332028666001    -2.516440750825    -0.877216210152
C                    -2.414500926104    -3.204170301944    -0.115264565095
C                    -3.727834311595    -3.472080505005    -0.386680720638
C                    -4.249145392989    -4.173509887889     0.746021871110
C                    -3.220297501325    -4.289625687445     1.648825672686
O                    -2.091171380214    -3.699547387221     1.127709540177
C                    -3.145626501068    -4.907932157499     2.967227670963
C                    -3.993454685489    -5.991826263849     3.256197391307
C                    -3.976150463697    -6.612933917592     4.503217527322
C                    -3.096484512316    -6.176482900226     5.501647587944
C                    -2.247072304708    -5.104878098493     5.244405237610
C                    -2.270389233763    -4.464008782202     3.991129110401
C                    -1.422042603845    -3.319991302168     3.827710789704
N                    -0.734345290201    -2.381301453886     3.760143813580
H                     3.199603460282    -0.698154500923     1.261854153296
H                     3.260534384848     1.025846133937     1.727040392803
H                     2.541041998261    -0.179686884478     2.837314887998
H                     1.941532389574     1.833143117054    -0.149125937459
H                     2.174659430612     0.190312778743    -0.769404492224
H                    -0.612587498477     2.618178260515     0.179118103645
H                    -1.792259145054     1.854608597926    -0.862539787137
H                    -1.153599609294     1.129360837663     1.961051154491
H                    -2.545725809254     0.730175077442     0.993088085473
H                     0.983077253880    -1.716390135218     0.700325894939
H                     0.478550213080    -1.214875567984     2.322338851582
H                    -0.906119435474    -0.232910993858    -2.483175544214
H                     0.522542624932    -1.023460222063    -1.821713825947
H                    -0.377421548229    -3.044421618824    -0.698991034841
H                    -1.550878225431    -2.621926824872    -1.943798501018
H                    -4.259859427011    -3.199160724169    -1.288569992866
H                    -5.262937780251    -4.524591058362     0.883689799015
H                    -4.654002853387    -6.364749504157     2.479870303357
H                    -4.639991304494    -7.451479614057     4.692863934371
H                    -3.075071705744    -6.667137639825     6.469783824912
H                    -1.567313231319    -4.743570186832     6.009785950993
