
  -OEChem-12122420533D

 48 51  0     1  0  0  0  0  0999 V2000
    2.6849    0.1019    1.7941 C   0  0  0  0  0  0  0  0  0  0  0  0
    1.3413    0.3096    1.1578 N   0  3  1  0  0  0  0  0  0  0  0  0
    0.8601    1.0299    1.7034 H   0  0  0  0  0  0  0  0  0  0  0  0
    1.4743    0.8501   -0.2517 C   0  0  0  0  0  0  0  0  0  0  0  0
    0.1454    0.9562   -1.0103 C   0  0  2  0  0  0  0  0  0  0  0  0
    0.3850    1.5844   -1.8748 H   0  0  0  0  0  0  0  0  0  0  0  0
   -0.9595    1.6452   -0.1875 C   0  0  0  0  0  0  0  0  0  0  0  0
   -1.4550    0.7432    0.9773 C   0  0  0  0  0  0  0  0  0  0  0  0
   -0.9776   -0.7078    0.7887 C   0  0  2  0  0  0  0  0  0  0  0  0
   -1.5808   -1.3540    1.4250 H   0  0  0  0  0  0  0  0  0  0  0  0
    0.4784   -0.9318    1.2691 C   0  0  0  0  0  0  0  0  0  0  0  0
   -1.2328   -1.0766   -0.6000 N   0  0  1  0  0  0  0  0  0  0  0  0
   -0.3500   -0.3998   -1.5536 C   0  0  0  0  0  0  0  0  0  0  0  0
   -1.3320   -2.5164   -0.8772 C   0  0  0  0  0  0  0  0  0  0  0  0
   -2.4145   -3.2042   -0.1153 C   0  0  0  0  0  0  0  0  0  0  0  0
   -3.7278   -3.4721   -0.3867 C   0  0  0  0  0  0  0  0  0  0  0  0
   -4.2491   -4.1735    0.7460 C   0  0  0  0  0  0  0  0  0  0  0  0
   -3.2203   -4.2896    1.6488 C   0  0  0  0  0  0  0  0  0  0  0  0
   -2.0912   -3.6995    1.1277 O   0  0  0  0  0  0  0  0  0  0  0  0
   -3.1456   -4.9079    2.9672 C   0  0  0  0  0  0  0  0  0  0  0  0
   -3.9935   -5.9918    3.2562 C   0  0  0  0  0  0  0  0  0  0  0  0
   -3.9762   -6.6129    4.5032 C   0  0  0  0  0  0  0  0  0  0  0  0
   -3.0965   -6.1765    5.5016 C   0  0  0  0  0  0  0  0  0  0  0  0
   -2.2471   -5.1049    5.2444 C   0  0  0  0  0  0  0  0  0  0  0  0
   -2.2704   -4.4640    3.9911 C   0  0  0  0  0  0  0  0  0  0  0  0
   -1.4220   -3.3200    3.8277 C   0  0  0  0  0  0  0  0  0  0  0  0
   -0.7343   -2.3813    3.7601 N   0  0  0  0  0  0  0  0  0  0  0  0
    3.1996   -0.6982    1.2619 H   0  0  0  0  0  0  0  0  0  0  0  0
    3.2605    1.0258    1.7270 H   0  0  0  0  0  0  0  0  0  0  0  0
    2.5410   -0.1797    2.8373 H   0  0  0  0  0  0  0  0  0  0  0  0
    1.9415    1.8331   -0.1491 H   0  0  0  0  0  0  0  0  0  0  0  0
    2.1747    0.1903   -0.7694 H   0  0  0  0  0  0  0  0  0  0  0  0
   -0.6126    2.6182    0.1791 H   0  0  0  0  0  0  0  0  0  0  0  0
   -1.7923    1.8546   -0.8625 H   0  0  0  0  0  0  0  0  0  0  0  0
   -1.1536    1.1294    1.9611 H   0  0  0  0  0  0  0  0  0  0  0  0
   -2.5457    0.7302    0.9931 H   0  0  0  0  0  0  0  0  0  0  0  0
    0.9831   -1.7164    0.7003 H   0  0  0  0  0  0  0  0  0  0  0  0
    0.4786   -1.2149    2.3223 H   0  0  0  0  0  0  0  0  0  0  0  0
   -0.9061   -0.2329   -2.4832 H   0  0  0  0  0  0  0  0  0  0  0  0
    0.5225   -1.0235   -1.8217 H   0  0  0  0  0  0  0  0  0  0  0  0
   -0.3774   -3.0444   -0.6990 H   0  0  0  0  0  0  0  0  0  0  0  0
   -1.5509   -2.6219   -1.9438 H   0  0  0  0  0  0  0  0  0  0  0  0
   -4.2599   -3.1992   -1.2886 H   0  0  0  0  0  0  0  0  0  0  0  0
   -5.2629   -4.5246    0.8837 H   0  0  0  0  0  0  0  0  0  0  0  0
   -4.6540   -6.3647    2.4799 H   0  0  0  0  0  0  0  0  0  0  0  0
   -4.6400   -7.4515    4.6929 H   0  0  0  0  0  0  0  0  0  0  0  0
   -3.0751   -6.6671    6.4698 H   0  0  0  0  0  0  0  0  0  0  0  0
   -1.5673   -4.7436    6.0098 H   0  0  0  0  0  0  0  0  0  0  0  0
  1  2  1  0  0  0  0
  1 28  1  0  0  0  0
  1 29  1  0  0  0  0
  1 30  1  0  0  0  0
  2  3  1  0  0  0  0
  2  4  1  0  0  0  0
  2 11  1  0  0  0  0
  4  5  1  0  0  0  0
  4 31  1  0  0  0  0
  4 32  1  0  0  0  0
  5  6  1  0  0  0  0
  5  7  1  0  0  0  0
  5 13  1  0  0  0  0
  7  8  1  0  0  0  0
  7 33  1  0  0  0  0
  7 34  1  0  0  0  0
  8  9  1  0  0  0  0
  8 35  1  0  0  0  0
  8 36  1  0  0  0  0
  9 10  1  0  0  0  0
  9 11  1  0  0  0  0
  9 12  1  0  0  0  0
 11 37  1  0  0  0  0
 11 38  1  0  0  0  0
 12 13  1  0  0  0  0
 12 14  1  0  0  0  0
 13 39  1  0  0  0  0
 13 40  1  0  0  0  0
 14 15  1  0  0  0  0
 14 41  1  0  0  0  0
 14 42  1  0  0  0  0
 15 16  2  0  0  0  0
 15 19  1  0  0  0  0
 16 17  1  0  0  0  0
 16 43  1  0  0  0  0
 17 18  2  0  0  0  0
 17 44  1  0  0  0  0
 18 19  1  0  0  0  0
 18 20  1  0  0  0  0
 20 21  1  0  0  0  0
 20 25  2  0  0  0  0
 21 22  2  0  0  0  0
 21 45  1  0  0  0  0
 22 23  1  0  0  0  0
 22 46  1  0  0  0  0
 23 24  2  0  0  0  0
 23 47  1  0  0  0  0
 24 25  1  0  0  0  0
 24 48  1  0  0  0  0
 25 26  1  0  0  0  0
 26 27  3  0  0  0  0
M  CHG  1   2   1
M  END
$$$$
