28   
torsion grid (-165,)
C        0.9537878844   -0.4738283213   -0.4802215634
C       -1.0743265707    0.1526298945    0.3542078872
C        2.8414793420    0.6463287107   -1.7373045470
C       -0.5902738821   -1.6446000302    3.3218081320
C       -1.2530807200    0.5758487410   -4.2935757284
C        2.1383775444   -0.6753952505   -1.3734427314
C       -0.4325350059   -0.2318934946    2.7566860389
C       -0.3517325736   -0.0103638330   -3.2200146342
N        1.0437051717   -0.6067841714    0.8153995664
N       -0.3565400556   -0.1412709785   -0.8345508887
N       -0.1839161285   -0.2330657259    1.3264732940
O       -2.2052075387    0.6046923264    0.4599922096
O       -0.8323384123    0.5202377534   -1.9711545946
H        2.1689790337    1.3459430328   -2.2425975425
H        3.6933936700    0.4551308522   -2.3974819534
H        3.2104931913    1.1375008487   -0.8325571226
H        0.3112552264   -2.2358481676    3.1375925280
H       -0.7611367639   -1.6007019163    4.4025594474
H       -1.4411468662   -2.1525289374    2.8577958716
H       -2.2891984486    0.2627940129   -4.1424046235
H       -1.2131838405    1.6687030725   -4.2754510797
H       -0.9196992737    0.2342406480   -5.2786556825
H        2.8311330056   -1.3066177485   -0.8102328559
H        1.8608100088   -1.2311991418   -2.2721636849
H       -1.3427356027    0.3543461062    2.9022917676
H        0.3959047086    0.2928460111    3.2432276260
H        0.6871146973    0.2877480288   -3.3852997558
H       -0.4140243022   -1.1054567292   -3.1989857749
28   
torsion grid (-150,)
C        1.0222641800   -0.4629315814   -0.4376798682
C       -1.0263623686    0.1516129695    0.3506020219
C        2.7747428060    0.7190229725   -1.8207261289
C       -0.6224534414   -1.6895250505    3.3097515270
C       -1.2234360765    0.6118289732   -4.2545584708
C        2.2091694669   -0.6275977413   -1.3305502306
C       -0.4462808079   -0.2718626089    2.7629390917
C       -0.4151373068   -0.1125397714   -3.1920913565
N        1.0819699499   -0.6183107350    0.8547809460
N       -0.2796559061   -0.1306923022   -0.8256508260
N       -0.1645848594   -0.2594226183    1.3389160170
O       -2.1561625951    0.6091300336    0.4350553065
O       -0.6416055569    0.6017489284   -1.9570994334
H        2.0283985601    1.3010902030   -2.3686391337
H        3.6330254355    0.5531520878   -2.4792787899
H        3.1061801553    1.3218284383   -0.9702876518
H        0.2808284642   -2.2825227498    3.1401517400
H       -0.8177095860   -1.6560551930    4.3867361701
H       -1.4643801486   -2.1893898506    2.8212814106
H       -2.2879613118    0.5948040930   -4.0075639497
H       -0.9024822212    1.6540652317   -4.3411320672
H       -1.0765149307    0.1249229188   -5.2238789064
H        2.9645413788   -1.1491494640   -0.7365652195
H        1.9644091628   -1.2762181993   -2.1771731476
H       -1.3570051012    0.3170130375    2.8941720280
H        0.3731183650    0.2441425007    3.2735887929
H        0.6495133930   -0.1033863111   -3.4435222575
H       -0.7444031908   -1.1506355477   -3.0678756949
28   
torsion grid (-135,)
C        1.0743817426   -0.4115363437   -0.3982728477
C       -1.0069152573    0.1362213840    0.3589911360
C        2.7246431092    0.7773888596   -1.9092611055
C       -0.6159910050   -1.7410805087    3.2906216981
C       -1.1409852076    0.6448123210   -4.2412888524
C        2.2614494478   -0.5561387000   -1.2938083795
C       -0.4595043947   -0.3092989587    2.7754924414
C       -0.5655023022   -0.2087541844   -3.1260370979
N        1.1160907089   -0.5817170486    0.8928464437
N       -0.2236563211   -0.0956274810   -0.8016339007
N       -0.1502329975   -0.2616862085    1.3579591877
O       -2.1546775041    0.5512196550    0.4259568339
O       -0.5457831714    0.6267500412   -1.9446299885
H        1.9410729594    1.2375494091   -2.5164639107
H        3.6024100955    0.6147296645   -2.5423027065
H        2.9970939626    1.4869002789   -1.1223338851
H        0.3029430230   -2.3113951185    3.1273955303
H       -0.8329914053   -1.7335304260    4.3639351375
H       -1.4374121592   -2.2485119636    2.7757118565
H       -2.1531186497    0.9731533404   -3.9910055264
H       -0.5201988446    1.5286953320   -4.4153602718
H       -1.1787332850    0.0626177592   -5.1673248338
H        3.0574171919   -0.9793243454   -0.6752528626
H        2.0492909201   -1.2855723952   -2.0832291919
H       -1.3850381895    0.2574688288    2.9005989194
H        0.3386958619    0.2133197430    3.3121912264
H        0.4508311329   -0.5376803624   -3.3670596780
H       -1.1849641199   -1.0893172329   -2.9232638659
28   
torsion grid (-120,)
C        1.1249653098   -0.3607314668   -0.3895601905
C       -0.9718766470    0.1682022300    0.3447538428
C        2.7811625331    0.8520125592   -1.8730752096
C       -0.6249166975   -1.7822698709    3.2257036804
C       -1.1444922883    0.5707850641   -4.2435898724
C        2.3102659163   -0.4926031781   -1.2885789171
C       -0.4637928199   -0.3345907537    2.7585185279
C       -0.7230067838   -0.2714114653   -3.0543839355
N        1.1486231405   -0.5537658407    0.8995506089
N       -0.1587002654   -0.0187097968   -0.7981064572
N       -0.1265915729   -0.2415820139    1.3495730637
O       -2.1291931467    0.5614905407    0.3958703451
O       -0.4596724043    0.6537700627   -1.9689215887
H        1.9971995578    1.3235619220   -2.4706637459
H        3.6583298391    0.6988954385   -2.5094539216
H        3.0571879483    1.5431541864   -1.0710771174
H        0.2992710531   -2.3440852345    3.0627884508
H       -0.8629063104   -1.8090043118    4.2942594063
H       -1.4342658648   -2.2760195415    2.6792867332
H       -2.0432919233    1.1464109668   -4.0070272776
H       -0.3498112386    1.2651898124   -4.5321466631
H       -1.3603782889   -0.0799226800   -5.0966523357
H        3.1040462277   -0.9427791492   -0.6864861612
H        2.0848989606   -1.1948714219   -2.0991691823
H       -1.3938155349    0.2249538120    2.8831226235
H        0.3218553931    0.1734466745    3.3266374458
H        0.1846138708   -0.8458349112   -3.2716314876
H       -1.5137268181   -0.9609338311   -2.7405339500
28   
torsion grid (-105,)
C        1.1837307579   -0.3127116499   -0.4017469840
C       -0.9210502240    0.2219331365    0.3075451472
C        2.8987254242    0.9406744898   -1.7684385917
C       -0.6329402347   -1.8034592118    3.1325989823
C       -1.1653914730    0.4586869445   -4.2547087348
C        2.3689246225   -0.4283244214   -1.3018641655
C       -0.4607089616   -0.3412897811    2.7172689527
C       -0.8653541447   -0.3033901862   -2.9783850600
N        1.1880038111   -0.5233020622    0.8857533298
N       -0.0811699370    0.0683691729   -0.8155509765
N       -0.0914466921   -0.2023353072    1.3201740603
O       -2.0846515825    0.6025201489    0.3397231116
O       -0.3665102052    0.6700486946   -2.0221730211
H        2.1341904097    1.4905159979   -2.3230794462
H        3.7693067393    0.8069807999   -2.4182418130
H        3.2022212460    1.5470681779   -0.9098961282
H        0.2943425172   -2.3605841994    2.9714657431
H       -0.8945879586   -1.8652987467    4.1941378609
H       -1.4303868922   -2.2777585036    2.5524170135
H       -1.9176290124    1.2310695707   -4.0731216855
H       -0.2620771076    0.9344770232   -4.6481444004
H       -1.5507321634   -0.2308745132   -5.0120581327
H        3.1393645597   -0.9643528863   -0.7413673768
H        2.1113646661   -1.0432353075   -2.1716756880
H       -1.3933060135    0.2146409827    2.8388892642
H        0.3116872327    0.1470824136    3.3196603439
H       -0.1016798245   -1.0742082059   -3.1350995831
H       -1.7633210301   -0.7700951612   -2.5609012970
28   
torsion grid (-90,)
C        1.2361798309   -0.2776854827   -0.3971801425
C       -0.8858020022    0.2349442686    0.2767419839
C        2.9882553388    0.9848938243   -1.7033823509
C       -0.6591939953   -1.8516479635    3.0484035453
C       -1.2753951802    0.3447114537   -4.2103542792
C        2.4278953426   -0.3881869107   -1.2882969216
C       -0.4777343011   -0.3773262156    2.6828860380
C       -0.9905950279   -0.3266016984   -2.8811926811
N        1.2161634051   -0.5076987759    0.8880905461
N       -0.0114114640    0.1330047585   -0.8207987605
N       -0.0731662770   -0.1950631590    1.3004350411
O       -2.0608678167    0.5858624803    0.2828603580
O       -0.2958934726    0.6550734818   -2.0604049892
H        2.2385447979    1.5661174556   -2.2465648527
H        3.8612575214    0.8569036453   -2.3511261695
H        3.2957337214    1.5565112414   -0.8227179580
H        0.2722619451   -2.4034467033    2.8932502919
H       -0.9472833064   -1.9463672446    4.1006351585
H       -1.4417302741   -2.3075412187    2.4341508946
H       -1.9048545348    1.2272792136   -4.0678532428
H       -0.3472240452    0.6506966815   -4.7023561644
H       -1.8016215679   -0.3535893379   -4.8684877875
H        3.1820796678   -0.9612327210   -0.7426442738
H        2.1600741394   -0.9637856986   -2.1817596555
H       -1.4136730695    0.1742861160    2.7985254244
H        0.2792076249    0.0923039525    3.3185732828
H       -0.3462971038   -1.2065836576   -2.9956672974
H       -1.9104473908   -0.6164271841   -2.3646360411
28   
torsion grid (-75,)
C        1.2975262850   -0.2261905148   -0.3954416323
C       -0.8419826642    0.2580031975    0.2395418281
C        3.0562191498    1.0350101923   -1.6954457123
C       -0.6907914243   -1.8946973601    2.9348177436
C       -1.3456487147    0.2461234282   -4.1698265032
C        2.5006817651   -0.3366448932   -1.2704018749
C       -0.4886154202   -0.4074112429    2.6388971738
C       -1.0772800943   -0.3238636478   -2.7909407623
N        1.2531963101   -0.4708769955    0.8874572344
N        0.0656471292    0.2114659971   -0.8314521424
N       -0.0451558288   -0.1681895390    1.2769555852
O       -2.0279066149    0.5756117228    0.2203759169
O       -0.2193645579    0.6364866024   -2.1070870477
H        2.3106481127    1.6021714999   -2.2589010091
H        3.9400094504    0.9053424450   -2.3279861159
H        3.3454188961    1.6217657168   -0.8184695773
H        0.2401404547   -2.4473459150    2.7794504762
H       -1.0067601219   -2.0326821672    3.9741895021
H       -1.4609984266   -2.3162528752    2.2816776694
H       -1.8542856607    1.2111210355   -4.0946025135
H       -0.4144635035    0.3819363900   -4.7281394529
H       -1.9880002935   -0.4402275735   -4.7301972335
H        3.2515919748   -0.8989945032   -0.7094462203
H        2.2451763699   -0.9232659952   -2.1604699448
H       -1.4232212400    0.1463659304    2.7548610038
H        0.2552459192    0.0277532779    3.3129485127
H       -0.5516018780   -1.2854555598   -2.8385654571
H       -1.9959584703   -0.4383375519   -2.2096545527
28   
torsion grid (-60,)
C        1.3438335267   -0.1950536241   -0.3893639278
C       -0.8080321310    0.2634736879    0.2149195063
C        3.1114632186    1.0696653837   -1.6741609632
C       -0.6920602536   -1.9307570471    2.8683544060
C       -1.3576589383    0.1609908732   -4.1488487659
C        2.5560778980   -0.3025671758   -1.2515713843
C       -0.4937785203   -0.4362449620    2.6083608201
C       -1.1549086333   -0.2963506243   -2.7176365690
N        1.2814825665   -0.4545878083    0.8899787627
N        0.1246259765    0.2680929554   -0.8354907654
N       -0.0244734361   -0.1652416136    1.2608325451
O       -2.0006290285    0.5590270772    0.1825850898
O       -0.1486546519    0.5930722736   -2.1456259911
H        2.3703182063    1.6321134710   -2.2482586095
H        4.0024578909    0.9414273911   -2.2967744704
H        3.3887102120    1.6607023302   -0.7961498291
H        0.2451727824   -2.4743863592    2.7192338241
H       -1.0270295859   -2.0929723889    3.8982291664
H       -1.4470298224   -2.3426218749    2.1916660363
H       -1.7147500153    1.1942332435   -4.1759941632
H       -0.4273742186    0.0953757016   -4.7211365303
H       -2.1065903658   -0.4747529838   -4.6312939682
H        3.3025372304   -0.8628224007   -0.6827321178
H        2.3087917362   -0.8897913017   -2.1435195035
H       -1.4340481473    0.1091703122    2.7176084467
H        0.2340731236   -0.0110393867    3.3056420237
H       -0.7749609031   -1.3243575481   -2.6649016924
H       -2.0683419446   -0.2137115716   -2.1252813591
28   
torsion grid (-45,)
C        1.3680243695   -0.1712862591   -0.3950344420
C       -0.7958471949    0.2394497730    0.1922887971
C        3.1218775967    1.1141049030   -1.6792088141
C       -0.6628511363   -1.9587624413    2.8368436530
C       -1.3361967327    0.1034466009   -4.1683243691
C        2.5859699593   -0.2638613080   -1.2505511591
C       -0.4878597523   -0.4599331293    2.5850538013
C       -1.2554395597   -0.2121696113   -2.6873142977
N        1.3026044000   -0.4360825962    0.8828268376
N        0.1476886902    0.2844003769   -0.8489567229
N       -0.0110540529   -0.1751577807    1.2428685300
O       -1.9951671935    0.5105904510    0.1612404499
O       -0.1037333017    0.5311678842   -2.1857116373
H        2.3749759068    1.6609765275   -2.2609379056
H        4.0176438364    0.9958539123   -2.2969252576
H        3.3855909416    1.7155279951   -0.8040338553
H        0.2846707071   -2.4858042247    2.6932400070
H       -1.0035516179   -2.1312772593    3.8631646268
H       -1.4051221736   -2.3802396988    2.1520875915
H       -1.4795891875    1.1759506874   -4.3277439822
H       -0.4285059548   -0.2111011455   -4.6920978533
H       -2.1893934613   -0.4251117423   -4.6049104353
H        3.3380989890   -0.8094663553   -0.6750022268
H        2.3503047170   -0.8590586534   -2.1402076521
H       -1.4381627641    0.0689128328    2.6884075333
H        0.2268687805   -0.0255101568    3.2900663999
H       -1.0823998729   -1.2803529585   -2.5053096259
H       -2.1459217312    0.1049182059   -2.1437575495
28   
torsion grid (-30,)
C        1.3783106752   -0.1751433622   -0.3801783380
C       -0.8036191713    0.1696813343    0.1788449564
C        3.1017190657    1.1399634933   -1.6773086935
C       -0.6242337876   -1.9830683935    2.8578589301
C       -1.3122019594    0.0726215713   -4.1921128605
C        2.6073204387   -0.2449109119   -1.2219302192
C       -0.4974217577   -0.4832416367    2.5841406614
C       -1.3424893586   -0.0948710130   -2.6846515394
N        1.3090454438   -0.4252359627    0.9006032469
N        0.1495179133    0.2347615199   -0.8537941759
N       -0.0151332729   -0.2033703801    1.2427598978
O       -2.0107014258    0.4054367640    0.1424774115
O       -0.0659014055    0.4260306078   -2.2118245502
H        2.3436277288    1.6480986758   -2.2792693174
H        4.0075215015    1.0373234833   -2.2830760508
H        3.3361882351    1.7699520969   -0.8139223055
H        0.3420762770   -2.4797277564    2.7323489434
H       -0.9699623972   -2.1511189165    3.8832547479
H       -1.3443387321   -2.4401414052    2.1722761633
H       -1.2064692033    1.1269059908   -4.4639264439
H       -0.4861129249   -0.4892159898   -4.6381360004
H       -2.2516889178   -0.2973731251   -4.6146379484
H        3.3709266027   -0.7510379224   -0.6257473808
H        2.4008417187   -0.8681852632   -2.0993902605
H       -1.4662195748    0.0143944607    2.6686349251
H        0.1942158723   -0.0138180008    3.2897565954
H       -1.4214034868   -1.1488144597   -2.3926281073
H       -2.1554120592    0.4601191316   -2.2173128820
28   
torsion grid (-15,)
C        1.3916128246   -0.1987782479   -0.3752390967
C       -0.8139522107    0.0444067443    0.1438869638
C        3.0605051710    1.1585884632   -1.7012700151
C       -0.5576737614   -1.9777795168    2.9114664761
C       -1.3008635969    0.1058482945   -4.2370492450
C        2.6358771115   -0.2325619040   -1.1969964330
C       -0.5038049872   -0.4857624980    2.5775490609
C       -1.3834788391    0.0080532065   -2.7250405224
N        1.3194194712   -0.3991246257    0.9146836875
N        0.1478868971    0.1079006123   -0.8816482277
N       -0.0184820869   -0.2366547816    1.2310675091
O       -2.0318316961    0.2147911083    0.0927961519
O       -0.0270990823    0.2514738265   -2.2558132055
H        2.2854748002    1.5993040149   -2.3338738264
H        3.9803549041    1.0823883426   -2.2895448121
H        3.2462205037    1.8343205161   -0.8608704714
H        0.4342423707   -2.4287228010    2.8169775082
H       -0.9077549823   -2.1217110540    3.9390746195
H       -1.2445166752   -2.4985912946    2.2373461507
H       -0.9556390320    1.0968810518   -4.5460337643
H       -0.6199661500   -0.6463179399   -4.6463536784
H       -2.2957367254   -0.0591030424   -4.6625150598
H        3.4164478564   -0.6695756765   -0.5689202829
H        2.4795566675   -0.9018540846   -2.0504251732
H       -1.4976871080   -0.0356345106    2.6307907619
H        0.1541497235    0.0469380221    3.2703149329
H       -1.7033753980   -0.9860189211   -2.3967997677
H       -2.0581794876    0.7488490708   -2.2958309035
28   
torsion grid (0,)
C        1.2544432803   -0.2439335315   -0.4581524476
C       -0.6556481204    0.7728990580    0.2589519609
C        1.8893494537   -1.5913435668   -2.4990058973
C        0.2886681222    0.6153230821    3.5540839947
C       -0.6281158603    2.6035975514   -3.7584588255
C        2.3596122520   -0.6517907321   -1.3736026880
C       -0.5444130280   -0.2048181861    2.5672677368
C       -0.8544975356    2.1141486576   -2.3400355356
N        1.0855144197   -0.6598872371    0.7702856870
N        0.2356311904    0.6075328963   -0.8175479511
N       -0.0845101434   -0.0566224847    1.1971183273
O       -1.6718194738    1.4622928249    0.3469150854
O        0.2382811512    1.1879222498   -2.0851390125
H        1.4588990341   -2.5072848664   -2.0829353610
H        2.7342456283   -1.8688459116   -3.1371205487
H        1.1340072969   -1.1065647777   -3.1231161963
H        0.2204248122    1.6823734297    3.3215368038
H       -0.0761622346    0.4607229665    4.5750069618
H        1.3394054686    0.3147088907    3.5121982785
H        0.3354139914    3.1135357203   -3.8500191481
H       -0.6548402377    1.7732715474   -4.4703460312
H       -1.4197845392    3.3111166283   -4.0241642249
H        2.8132205974    0.2461160159   -1.8072954254
H        3.1157982303   -1.1424350040   -0.7553275102
H       -0.5079532577   -1.2698241844    2.8144663034
H       -1.5886571579    0.1156081856    2.5744052070
H       -1.8076765201    1.5925961096   -2.2313725448
H       -0.8199880615    2.9282713097   -1.6129745677
28   
torsion grid (15,)
C        1.2205510340   -0.2833521163   -0.5056459300
C       -0.7582660583    0.6031041007    0.1965185774
C        1.9386491356   -1.6561575484   -2.5008674104
C        0.2531811580    0.7218964767    3.4737196403
C       -0.6056100015    2.6796867653   -3.6888937922
C        2.3438153291   -0.6361225397   -1.4212678883
C       -0.5201410026   -0.2250114075    2.5539736003
C       -0.8135351006    2.1621351520   -2.2776946930
N        1.1095610005   -0.6423882065    0.7465601053
N        0.1105732457    0.4319778099   -0.8973915391
N       -0.1000715285   -0.1165591566    1.1674664778
O       -1.8272120999    1.2091284806    0.2661324186
O        0.0683634743    1.0096928002   -2.1641126002
H        1.5911255294   -2.5868807895   -2.0422982837
H        2.7950505932   -1.8883624482   -3.1417038498
H        1.1372198979   -1.2614681037   -3.1310917440
H        0.0850024084    1.7633704594    3.1831043009
H       -0.0781002905    0.5952893910    4.5098143265
H        1.3258489434    0.5139316386    3.4250942583
H        0.4333787346    2.9813560492   -3.8514806779
H       -0.8691778384    1.9168890188   -4.4274508851
H       -1.2486184030    3.5505761590   -3.8503113296
H        2.7129590511    0.2782772447   -1.8989146384
H        3.1473692314   -1.0344974821   -0.7965221820
H       -0.3836712760   -1.2662821275    2.8599213131
H       -1.5887453509    0.0012264655    2.5672235059
H       -1.8432673357    1.8553318856   -2.0940316154
H       -0.5318511637    2.9048902715   -1.5244926318
28   
torsion grid (30,)
C        1.2043613186   -0.2934640675   -0.4927546805
C       -0.8197572428    0.4943768361    0.1960642471
C        1.9908576680   -1.6723251502   -2.4580403632
C        0.2241722801    0.7846259995    3.4621114935
C       -0.5926682578    2.6778691528   -3.6189224582
C        2.3416199507   -0.6049741124   -1.4057072316
C       -0.5117634690   -0.2269957610    2.5814811028
C       -0.7186981335    2.1847535315   -2.1898095096
N        1.1252043554   -0.6116734997    0.7722437832
N        0.0429793340    0.3274693865   -0.9025143857
N       -0.1109499275   -0.1436259330    1.1876974641
O       -1.9200289510    1.0427135705    0.2478206296
O       -0.0615653179    0.8838428768   -2.1700934518
H        1.6973562802   -2.6094264265   -1.9753448266
H        2.8569623357   -1.8720941729   -3.0967279134
H        1.1665258339   -1.3391592095   -3.0942303164
H        0.0034585254    1.8071851886    3.1409464640
H       -0.0905689727    0.6754381236    4.5052905380
H        1.3050469884    0.6266044222    3.4080739331
H        0.4561002430    2.7795974490   -3.9134680563
H       -1.0866064421    1.9907566506   -4.3120882543
H       -1.0741913228    3.6569593984   -3.7059664911
H        2.6555046942    0.3170876593   -1.9080199169
H        3.1699669976   -0.9403309719   -0.7763669592
H       -0.3236834905   -1.2501072707    2.9198219024
H       -1.5897894119   -0.0511655376    2.5986464597
H       -1.7557396589    2.0713182077   -1.8752626280
H       -0.2061411682    2.8476935305   -1.4826332813
28   
torsion grid (45,)
C        1.1958361452   -0.2839569884   -0.5061409269
C       -0.8559907524    0.4354204132    0.1783245114
C        2.0223822135   -1.6650189388   -2.4521175213
C        0.1819626425    0.7984748367    3.4391299658
C       -0.6330407581    2.6601738215   -3.6066724750
C        2.3393548794   -0.5673454938   -1.4204311003
C       -0.5178613644   -0.2491911013    2.5712845740
C       -0.5802253987    2.2177179194   -2.1572002592
N        1.1287148192   -0.5928304224    0.7616993714
N        0.0119391296    0.2917595075   -0.9182758968
N       -0.1241414934   -0.1656964523    1.1756071049
O       -1.9713882132    0.9522110130    0.2191411625
O       -0.1566392925    0.8211388330   -2.1841193958
H        1.7674173925   -2.6039197755   -1.9514738899
H        2.8911332651   -1.8430593375   -3.0936216462
H        1.1817692916   -1.3739303638   -3.0877094823
H       -0.0771441007    1.8086257490    3.1075305132
H       -0.1263124817    0.6890806880    4.4842006847
H        1.2678335822    0.6799363791    3.3841083846
H        0.3472744040    2.5737249246   -4.0848881406
H       -1.3521317454    2.0575704171   -4.1688275310
H       -0.9511306263    3.7063477420   -3.6542638876
H        2.6150898793    0.3569945750   -1.9408659232
H        3.1842383001   -0.8597715677   -0.7917031761
H       -0.2910384416   -1.2609318263    2.9198959752
H       -1.6016959935   -0.1135601889    2.5898080955
H       -1.5508433384    2.2841850185   -1.6648179203
H        0.1571247052    2.7907290163   -1.5809559852
28   
torsion grid (60,)
C        1.1895251309   -0.2557483262   -0.4876601594
C       -0.8827538511    0.4161267656    0.1906958750
C        2.0391950618   -1.6299969505   -2.4278214901
C        0.1378941001    0.7828421894    3.4602457553
C       -0.6863509004    2.6241789006   -3.6094372095
C        2.3380461141   -0.5225681453   -1.4010077917
C       -0.5394239798   -0.2721292333    2.5834554702
C       -0.4465328593    2.2311932320   -2.1649007044
N        1.1216205071   -0.5707363405    0.7788850295
N        0.0011486421    0.3108555353   -0.8959821229
N       -0.1430527101   -0.1725001707    1.1897238260
O       -2.0068059215    0.9124829417    0.2193682761
O       -0.2340841022    0.7870055303   -2.1666878404
H        1.8007588523   -2.5706346564   -1.9224073931
H        2.9105756882   -1.7962311209   -3.0689348932
H        1.1930967952   -1.3563186897   -3.0637858228
H       -0.1383116310    1.7901241888    3.1337322250
H       -0.1722038044    0.6614989215    4.5034507165
H        1.2259329784    0.6844380773    3.4086016063
H        0.1733597658    2.3703146645   -4.2368921203
H       -1.5713904614    2.1176976098   -4.0044348059
H       -0.8522592660    3.7042911993   -3.6698823410
H        2.6001166368    0.4038684074   -1.9250199630
H        3.1878231764   -0.7986654726   -0.7714719912
H       -0.2954172808   -1.2816704617    2.9270357465
H       -1.6256757038   -0.1566460471    2.5990069774
H       -1.3053158273    2.4550066058   -1.5289178436
H        0.4503897871    2.7101191306   -1.7524691844
28   
torsion grid (75,)
C        1.1713704197   -0.2048308786   -0.4732861210
C       -0.9100222799    0.4292760921    0.2202792594
C        2.0177402233   -1.5646917930   -2.4247199510
C        0.1088837519    0.7293673311    3.5050615908
C       -0.7235296994    2.5661824994   -3.6650029397
C        2.3159309003   -0.4588512058   -1.3956821658
C       -0.5561412900   -0.3081608960    2.5985520564
C       -0.3584456779    2.2360268930   -2.2311389614
N        1.1084995553   -0.5422959977    0.7876193263
N       -0.0135489117    0.3829518249   -0.8600859686
N       -0.1602544465   -0.1654073496    1.2086996904
O       -2.0432432529    0.9010200822    0.2506771914
O       -0.3209925904    0.7813472500   -2.1391082162
H        1.7914993688   -2.5089113661   -1.9204673275
H        2.8854433643   -1.7215234146   -3.0731803688
H        1.1639144326   -1.2960106624   -3.0522739118
H       -0.1773163084    1.7423218061    3.2058452245
H       -0.2012155821    0.5761766909    4.5440725414
H        1.1979690291    0.6438316061    3.4523709893
H        0.0176185759    2.1647658021   -4.3627317470
H       -1.7037997611    2.1525378022   -3.9171077718
H       -0.7642449534    3.6525665400   -3.7908016904
H        2.5708428787    0.4712308785   -1.9168380626
H        3.1715523730   -0.7329572065   -0.7731507774
H       -0.3016878325   -1.3241456822    2.9148720460
H       -1.6436363492   -0.2049376277    2.6159781002
H       -1.1050402886    2.6056816780   -1.5233806796
H        0.6298550158    2.6259153864   -1.9581671428
28   
torsion grid (90,)
C        1.1521665526   -0.1369634333   -0.4482688628
C       -0.9355356853    0.4529678519    0.2681249498
C        1.9902913619   -1.4908405225   -2.4064991687
C        0.0884015454    0.6422793212    3.5778981451
C       -0.7182502697    2.4744301460   -3.7524339043
C        2.2888548824   -0.3783550344   -1.3843003098
C       -0.5679663082   -0.3556663829    2.6220843901
C       -0.2737543406    2.2245176637   -2.3247043719
N        1.1005547131   -0.5008687312    0.8047901597
N       -0.0308003245    0.4754277866   -0.8091245942
N       -0.1693899696   -0.1453538070    1.2418822161
O       -2.0820734807    0.8864259974    0.3075556553
O       -0.3997236320    0.7922509096   -2.0950736862
H        1.7859881956   -2.4367171366   -1.8961677804
H        2.8498335168   -1.6369001589   -3.0682693460
H        1.1222997000   -1.2363337905   -3.0202976051
H       -0.2015737185    1.6665392070    3.3243372283
H       -0.2246223520    0.4398880777    4.6075739528
H        1.1781105390    0.5647085347    3.5255458732
H       -0.0887196345    1.9276644948   -4.4609056175
H       -1.7567437407    2.1620251690   -3.8916731372
H       -0.6446682169    3.5428598446   -3.9776480619
H        2.5288913040    0.5526870106   -1.9104762918
H        3.1553503196   -0.6422196668   -0.7723557745
H       -0.3085894094   -1.3838584452    2.8922427726
H       -1.6561216781   -0.2596103834    2.6404345282
H       -0.9092094608    2.7450544111   -1.6020737918
H        0.7714551748    2.5146571027   -2.1636186982
28   
torsion grid (105,)
C        1.1280053544   -0.0683793420   -0.4138714594
C       -0.9580563072    0.4850123034    0.3353230287
C        1.9407854461   -1.3593323089   -2.4276380754
C        0.0798035172    0.5749771155    3.6487195405
C       -0.7089468287    2.3747177078   -3.8229793636
C        2.2596594912   -0.2954957380   -1.3604586351
C       -0.5678213620   -0.3964445478    2.6601340078
C       -0.1848322224    2.1982346834   -2.4110035637
N        1.0889931938   -0.4666182554    0.8279422402
N       -0.0519943325    0.5768282225   -0.7420750084
N       -0.1784401019   -0.1311582891    1.2870125604
O       -2.1145165544    0.8844091564    0.3917393943
O       -0.4786828652    0.8274279629   -2.0285054744
H        1.7153532322   -2.3202519390   -1.9556815255
H        2.8000691167   -1.4972062914   -3.0914702917
H        1.0797878424   -1.0644486543   -3.0327427458
H       -0.2238274465    1.6039157123    3.4329687119
H       -0.2265189784    0.3319860970    4.6716112595
H        1.1702258740    0.5131514926    3.5898524007
H       -0.2144007429    1.6849645150   -4.5134605050
H       -1.7865788934    2.1933615970   -3.8581193032
H       -0.5175115506    3.3980155783   -4.1603825522
H        2.5271886075    0.6497533435   -1.8462606233
H        3.1173439924   -0.6053882682   -0.7576385864
H       -0.2937651864   -1.4302264714    2.8921208956
H       -1.6570534216   -0.3157365477    2.6863058593
H       -0.6829932482    2.8690172011   -1.7037186853
H        0.8980322626    2.3599651308   -2.3558392485
28   
torsion grid (120,)
C        1.1093688684   -0.0154583722   -0.3903743877
C       -0.9763491568    0.5234155475    0.3681003110
C        1.9248848580   -1.2057942199   -2.4719833363
C        0.0538264418    0.4982925891    3.7058846236
C       -0.7425930869    2.2528994364   -3.8974240977
C        2.2551392970   -0.2354322175   -1.3227851967
C       -0.5949812293   -0.4214859655    2.6699678593
C       -0.0693347737    2.1021546798   -2.5464418876
N        1.0702581936   -0.4303295762    0.8449519666
N       -0.0645762197    0.6584670425   -0.7055099717
N       -0.1932551089   -0.0978232448    1.3130147852
O       -2.1396501561    0.8975883182    0.4267482224
O       -0.5431171991    0.8497032406   -1.9892120366
H        1.6354909976   -2.1840824082   -2.0766677357
H        2.8014992757   -1.3417674927   -3.1129996151
H        1.1013401565   -0.8321303210   -3.0853471913
H       -0.2389395693    1.5386991278    3.5348939244
H       -0.2621044336    0.2118207361    4.7144962031
H        1.1440968894    0.4294348508    3.6520677159
H       -0.4751540593    1.4259133392   -4.5619166679
H       -1.8297631019    2.2733668254   -3.7843619589
H       -0.4219428715    3.1887970084   -4.3654279920
H        2.5927273288    0.7248698577   -1.7288736100
H        3.0735199561   -0.6316494837   -0.7157191130
H       -0.3320546982   -1.4672491844    2.8577706396
H       -1.6836093493   -0.3320711132    2.6914170974
H       -0.3399338836    2.9127391203   -1.8616799626
H        1.0216527568    2.0678064187   -2.6439488010
28   
torsion grid (135,)
C        1.1049681816    0.0462318503   -0.3699638456
C       -0.9896636615    0.5503867249    0.3807872542
C        1.9480508997   -1.1275831591   -2.4503534031
C        0.0158283256    0.4383580671    3.7380521356
C       -0.7552959275    2.1784953368   -3.9465661942
C        2.2654059604   -0.1715953012   -1.2853787711
C       -0.6237236054   -0.4436974558    2.6644058790
C        0.0503730176    1.9768610663   -2.6761888238
N        1.0595861060   -0.3881410164    0.8576994892
N       -0.0667466657    0.7368670540   -0.6807385557
N       -0.2074771787   -0.0735155986    1.3238576588
O       -2.1617807867    0.8934325408    0.4327904227
O       -0.5858105711    0.8920313230   -1.9602944737
H        1.6531343076   -2.1095948202   -2.0688591304
H        2.8318926956   -1.2570997786   -3.0825886105
H        1.1309867582   -0.7519699609   -3.0715104216
H       -0.2735250593    1.4846183111    3.6002814810
H       -0.3108790144    0.1174219361    4.7327358173
H        1.1064980748    0.3696084155    3.6931526933
H       -0.7593458854    1.2680757775   -4.5532585392
H       -1.7886880298    2.4438629961   -3.7088464889
H       -0.3118703819    2.9850429413   -4.5387841641
H        2.6262127037    0.7888270702   -1.6696378503
H        3.0652155704   -0.5875075850   -0.6668624813
H       -0.3652928808   -1.4961193940    2.8193664456
H       -1.7123072484   -0.3525078479    2.6769013741
H        0.0427978935    2.8692966021   -2.0407556366
H        1.0881759679    1.7139358258   -2.9065177615
28   
torsion grid (150,)
C        1.0925188991    0.1376200442   -0.3762195794
C       -1.0119150099    0.5658931240    0.3879046827
C        1.9902150355   -1.1308893605   -2.3677107139
C       -0.0072508633    0.3933392216    3.7443007490
C       -0.8278499588    2.2732937067   -3.9142948068
C        2.2579056417   -0.0631913417   -1.2897978109
C       -0.6197172491   -0.4764115238    2.6450995798
C        0.1016262516    1.8705687461   -2.7825789550
N        1.0596875534   -0.3256987065    0.8413294983
N       -0.0930122954    0.8203879433   -0.6664524029
N       -0.2126738306   -0.0565282985    1.3164334745
O       -2.1952456376    0.8647440117    0.4455971993
O       -0.6604215834    0.9874354302   -1.9304857925
H        1.7913015566   -2.0991947920   -1.8994282891
H        2.8619417754   -1.2379171214   -3.0207738971
H        1.1252003331   -0.8786097934   -2.9875059627
H       -0.3264170646    1.4342613756    3.6351203006
H       -0.3258422599    0.0354029963    4.7289450633
H        1.0850222775    0.3573297555    3.6998430406
H       -1.1676261966    1.3928978127   -4.4676641442
H       -1.7034148874    2.7993662848   -3.5255235239
H       -0.2974472586    2.9326037255   -4.6087217823
H        2.5525206769    0.8854186714   -1.7488471628
H        3.0887158713   -0.3822969940   -0.6547015895
H       -0.3308866036   -1.5248239763    2.7709117640
H       -1.7104790676   -0.4173172640    2.6578961914
H        0.4273037418    2.7372146587   -2.1957682834
H        0.9824931448    1.3518194328   -3.1721367271
28   
torsion grid (165,)
C        1.0495830152    0.2028614019   -0.3997246916
C       -1.0515119795    0.5917331906    0.3978703305
C        2.0750138980   -1.1531614781   -2.2727087345
C       -0.0089868502    0.3376015978    3.7321217158
C       -0.8254952878    2.3316649649   -3.9304625816
C        2.2347184790    0.0293490679   -1.2980969216
C       -0.6314383076   -0.5096575052    2.6209521141
C        0.0964057061    1.7738560085   -2.8592216301
N        1.0274217656   -0.2949198538    0.8069717207
N       -0.1473126132    0.8762969483   -0.6586306516
N       -0.2419872060   -0.0582258240    1.2973752769
O       -2.2353701024    0.8860964818    0.4770691683
O       -0.7638446681    1.1609605229   -1.8812148939
H        1.9641165101   -2.0875445328   -1.7153769103
H        2.9566516576   -1.2381206493   -2.9158617702
H        1.1949448356   -1.0438017136   -2.9134558028
H       -0.3333162419    1.3794022394    3.6499965901
H       -0.3147348243   -0.0435393662    4.7121193173
H        1.0827748682    0.3068982463    3.6739770696
H       -1.4336586075    1.5349619589   -4.3682441160
H       -1.4929825908    3.0885203341   -3.5109072111
H       -0.2284532268    2.7876817107   -4.7265852472
H        2.4558091716    0.9535473098   -1.8372034896
H        3.0834208437   -0.1637747854   -0.6363076583
H       -0.3378471135   -1.5596175902    2.7197726394
H       -1.7221136917   -0.4543939399    2.6477356479
H        0.6827503962    2.5688186250   -2.3819538374
H        0.7766636568    1.0317554023   -3.2857557645
28   
torsion grid (180,)
C        0.9414101902   -0.4403619321   -0.4684470394
C       -1.0593414465    0.2212864655    0.4213484307
C        2.9253697801    0.5772046583   -1.6814622463
C       -0.6585535268   -1.6452740553    3.2510302690
C       -1.3361235316    0.4507101845   -4.2638228037
C        2.1148309849   -0.6947991749   -1.3686262730
C       -0.3784899070   -0.2103739153    2.7996079170
C       -0.3557028684    0.0461779070   -3.1758232768
N        1.0708443596   -0.5346107361    0.8326691486
N       -0.3286594298    0.0330224975   -0.7687828597
N       -0.1255797528   -0.1174036491    1.3725950717
O       -2.2202165026    0.5880412132    0.5518348196
O       -1.0617516421    0.2278793984   -1.9404041600
H        2.3273397390    1.3287619393   -2.2052577289
H        3.7873028421    0.3321070427   -2.3103321065
H        3.2912006888    1.0283823495   -0.7550662342
H        0.1894047615   -2.2948968673    3.0154218316
H       -0.8275446250   -1.6743160902    4.3326436125
H       -1.5497299799   -2.0376848553    2.7521533677
H       -2.2372540817   -0.1666805997   -4.2200763512
H       -1.6254789263    1.4989823404   -4.1532113484
H       -0.8680205713    0.3163987097   -5.2440057873
H        2.7510153088   -1.3943616342   -0.8197628446
H        1.8147923021   -1.1984143244   -2.2885507105
H       -1.2359163718    0.4364666637    2.9990768773
H        0.4928553400    0.2010141428    3.3172773327
H        0.5381931100    0.6774167813   -3.1999895484
H       -0.0618022411   -1.0043191533   -3.2884378152
