20   
torsion grid (-165,)
C        1.0212580119    4.1999260939   -2.8534414772
C        0.7841787914    2.6937544238   -3.0379966171
C       -0.5056231188    2.4479543770   -3.8352758139
C        0.7757124107    1.9799521846   -1.6742903190
C        0.7225080720    0.4481261527   -1.7383459914
C        0.7875702156   -0.2064728257   -0.3514143261
H        1.9576838419    4.3944424485   -2.3183989852
H        0.2068461690    4.6543913975   -2.2755102889
H        1.0716543017    4.7165964564   -3.8185637300
H        1.6246250781    2.2893797002   -3.6209732246
H       -0.6538051400    1.3880092916   -4.0630114417
H       -1.3810760355    2.7953450206   -3.2719141489
H       -0.4871378521    2.9903259197   -4.7872766366
H       -0.0744085913    2.3518774606   -1.0830404246
H        1.6788988574    2.2713266341   -1.1210545226
H        1.5661866029    0.0947453527   -2.3465425951
H       -0.1857224429    0.1165686814   -2.2540656615
H        1.0131849608   -1.2760490757   -0.4217475792
H        1.5815820119    0.2463800699    0.2547564347
H       -0.1531785008   -0.0859008814    0.1969112551
20   
torsion grid (-150,)
C        1.1068114226    4.2066835632   -2.8450181603
C        0.8353489410    2.7120420561   -3.0716536327
C       -0.4434897414    2.5197987605   -3.9007277263
C        0.7803508005    1.9660728548   -1.7265397309
C        0.7036113619    0.4368804881   -1.8292003746
C        0.6972890949   -0.2558998812   -0.4540931537
H        2.0379246592    4.3639125877   -2.2888744046
H        0.2936524487    4.6673522756   -2.2702510526
H        1.1877530488    4.7456502963   -3.7957612936
H        1.6772517138    2.3002827273   -3.6473996384
H       -0.6164903966    1.4696355120   -4.1547500246
H       -1.3206406510    2.8799058765   -3.3481348019
H       -0.3895686202    3.0815682257   -4.8400463033
H       -0.0770639976    2.3396767905   -1.1468221928
H        1.6748062319    2.2260836250   -1.1445633144
H        1.5699790715    0.0903226178   -2.4081032866
H       -0.1813013943    0.1320594852   -2.3981012549
H        1.1572206359   -1.2486671388   -0.4981411760
H        1.2829239780    0.3212188875    0.2718380008
H       -0.3146381478   -0.3562733959   -0.0485415835
20   
torsion grid (-135,)
C        1.1064103597    4.1867760797   -2.8565632627
C        0.8141593306    2.6926647850   -3.0596717676
C       -0.4892338134    2.5046237980   -3.8507214794
C        0.7895617991    1.9614032941   -1.7058158461
C        0.6895905701    0.4320029801   -1.7894904950
C        0.7231318315   -0.2509782877   -0.4037540534
H        2.0531349918    4.3403331520   -2.3263631089
H        0.3130623090    4.6620143094   -2.2661798866
H        1.1681443101    4.7145973564   -3.8149650322
H        1.6355327491    2.2664657278   -3.6542648313
H       -0.6772455716    1.4541474695   -4.0924971206
H       -1.3475898429    2.8751630915   -3.2759515296
H       -0.4578526822    3.0596351827   -4.7950640439
H       -0.0459984032    2.3506013108   -1.1050483966
H        1.7038505865    2.2162832667   -1.1529512308
H        1.5250373387    0.0687336820   -2.4015794953
H       -0.2209052704    0.1400217715   -2.3227949254
H        1.3902162960   -1.1188304513   -0.3918898225
H        1.1005606243    0.4372013637    0.3616320543
H       -0.2695756223   -0.5785983863   -0.0798664346
20   
torsion grid (-120,)
C        1.1072645676    4.1739492832   -2.8661952081
C        0.8031806935    2.6796467460   -3.0493107533
C       -0.5177610061    2.4906834850   -3.8105258008
C        0.8043742779    1.9608725614   -1.6886819098
C        0.6703485666    0.4330003763   -1.7541911377
C        0.7668032288   -0.2410115279   -0.3639048019
H        2.0646155243    4.3272324330   -2.3553463143
H        0.3277653510    4.6593064783   -2.2656755972
H        1.1538189609    4.6921918483   -3.8306609491
H        1.6093886089    2.2437678450   -3.6574340336
H       -0.7127479837    1.4394898793   -4.0435001245
H       -1.3627086735    2.8652370997   -3.2186903843
H       -0.5061427293    3.0415838111   -4.7577215188
H       -0.0068644480    2.3687658693   -1.0677600851
H        1.7385720953    2.2054289109   -1.1646372198
H        1.4514740769    0.0405018523   -2.4170706530
H       -0.2816696235    0.1683389414   -2.2254209369
H        1.6018270837   -0.9465409297   -0.3082912859
H        0.9198542351    0.5003771681    0.4280762410
H       -0.1431571235   -0.7952161141   -0.1131626081
20   
torsion grid (-105,)
C        1.0724008901    4.1665164187   -2.8872705950
C        0.7667401717    2.6686612590   -3.0346268014
C       -0.5895515806    2.4629413272   -3.7261088026
C        0.8393194135    1.9682818782   -1.6663300825
C        0.6899751332    0.4408815510   -1.7024815616
C        0.9002977698   -0.2144866571   -0.3185126280
H        2.0535140161    4.3306381814   -2.4274120925
H        0.3218521156    4.6568654513   -2.2547566471
H        1.0678311056    4.6717561454   -3.8597219434
H        1.5436360011    2.2277449280   -3.6762667535
H       -0.7898755427    1.4075968513   -3.9345556723
H       -1.4060521587    2.8414521850   -3.0979338870
H       -0.6282805642    3.0007411272   -4.6800904960
H        0.0647095331    2.3873887016   -1.0076869134
H        1.8017520579    2.2166183004   -1.1974291330
H        1.3965854317    0.0226023265   -2.4299115526
H       -0.3087124001    0.1894762541   -2.0751242922
H        1.8723213324   -0.7134389999   -0.2477744067
H        0.8380362114    0.5215800567    0.4900122085
H        0.1442945762   -0.9810086108   -0.1174387451
20   
torsion grid (-90,)
C        0.9832834689    4.1629256120   -2.9065340193
C        0.6780458251    2.6600121086   -2.9882103639
C       -0.7268666412    2.4275614231   -3.5644286697
C        0.8632484818    1.9980772831   -1.6112560257
C        0.7110220226    0.4710261849   -1.5919448810
C        1.0525516369   -0.1423298944   -0.2210642629
H        1.9959994257    4.3449038496   -2.5293219629
H        0.2807215429    4.6669796408   -2.2311186402
H        0.8993143019    4.6406513031   -3.8892278656
H        1.4051936552    2.2054714644   -3.6768826237
H       -0.9339404270    1.3657769624   -3.7289851924
H       -1.4943892756    2.8171179543   -2.8834414327
H       -0.8455302051    2.9398385736   -4.5258359611
H        0.1447426612    2.4364358265   -0.9035325821
H        1.8606101320    2.2589263561   -1.2299886968
H        1.3424146315    0.0241200555   -2.3702992464
H       -0.3213503930    0.2131073796   -1.8535986173
H        2.1140349649   -0.4033169019   -0.1495772406
H        0.8076161659    0.5412912139    0.5989293780
H        0.4956333808   -1.0707698300   -0.0519787221
20   
torsion grid (-75,)
C        1.0014318031    4.1643236479   -2.9405060421
C        0.6625562673    2.6681178520   -3.0117494875
C       -0.7538126294    2.4639548592   -3.5702125593
C        0.8494437136    2.0080342995   -1.6339586555
C        0.6695791622    0.4846059030   -1.6077614215
C        1.0090003225   -0.1259574771   -0.2406616107
H        2.0220862782    4.3257725948   -2.5755297095
H        0.3177478831    4.6865799045   -2.2595741249
H        0.9167917293    4.6394291107   -3.9244116234
H        1.3713613067    2.1948964568   -3.7069175825
H       -0.9864392520    1.4061202333   -3.7258334007
H       -1.5043507647    2.8745726266   -2.8827117285
H       -0.8723121184    2.9731292978   -4.5332902914
H        0.1471515553    2.4639504585   -0.9209179862
H        1.8556059778    2.2508011013   -1.2642438423
H        1.2944409482    0.0240570789   -2.3842273633
H       -0.3673571927    0.2364616491   -1.8623899595
H        2.0922056648   -0.1594184435   -0.0772538203
H        0.5564013635    0.4473765994    0.5761865205
H        0.6439797190   -1.1564985262   -0.1651049210
20   
torsion grid (-60,)
C        1.0683740108    4.1443438150   -2.9482280517
C        0.6908853470    2.6578652754   -3.0291153459
C       -0.7286016265    2.4944281937   -3.5929460900
C        0.8561335027    1.9853941906   -1.6543901868
C        0.6623545849    0.4637710591   -1.6432076351
C        0.9496611364   -0.1570488074   -0.2709481583
H        2.0934339273    4.2769047257   -2.5839799330
H        0.3994808721    4.6793377123   -2.2625153621
H        0.9944417889    4.6282405526   -3.9287042085
H        1.3892524650    2.1703382466   -3.7249708681
H       -0.9912277477    1.4437428792   -3.7492373386
H       -1.4694320805    2.9268847858   -2.9083508376
H       -0.8287811901    3.0063982470   -4.5566215339
H        0.1519895519    2.4454255010   -0.9454701633
H        1.8611059231    2.2128230750   -1.2726519830
H        1.3216280906    0.0103748928   -2.3956818575
H       -0.3622337154    0.2139867369   -1.9422028494
H        1.9823765263    0.0362231133    0.0420312917
H        0.2887150757    0.2616260116    0.4970452389
H        0.8014234748   -1.2424097835   -0.2825317941
20   
torsion grid (-45,)
C        1.0161194381    4.1055918154   -2.9556822577
C        0.6288832258    2.6193703040   -2.9589477581
C       -0.8328018368    2.4473111181   -3.3988510149
C        0.9048934916    1.9890666827   -1.5820705112
C        0.7235288721    0.4674567834   -1.5112915749
C        1.0772055362   -0.1075057783   -0.1326900549
H        2.0677252911    4.2439298185   -2.6800230326
H        0.4065415438    4.6652738484   -2.2352768293
H        0.8643423341    4.5590879874   -3.9417081299
H        1.2661925808    2.1067820988   -3.6943286350
H       -1.1115304570    1.3940541888   -3.5001862332
H       -1.5130263771    2.9054163216   -2.6695335149
H       -1.0101070831    2.9298925307   -4.3665744389
H        0.2575456087    2.4705620766   -0.8339154785
H        1.9359966285    2.2280709656   -1.2880816189
H        1.3627291890    0.0042496859   -2.2752861165
H       -0.3057141977    0.1906122504   -1.7655412497
H        2.0151624232    0.3168255979    0.2441300964
H        0.3030471113    0.1395511569    0.6036026613
H        1.1750748059   -1.1977375149   -0.1577614038
20   
torsion grid (-30,)
C        1.0645454138    4.1000998141   -2.9732195348
C        0.6446524561    2.6227691534   -2.9861273553
C       -0.8199438732    2.4861851668   -3.4288986796
C        0.9049630778    1.9783392104   -1.6129041627
C        0.7015785849    0.4585348021   -1.5543132903
C        1.0182644446   -0.1330248491   -0.1684261848
H        2.1191159347    4.2134404037   -2.6974942252
H        0.4678563447    4.6682041268   -2.2486346016
H        0.9221669406    4.5634281224   -3.9560706487
H        1.2715477386    2.1007780278   -3.7239015368
H       -1.1231171223    1.4401337466   -3.5345642724
H       -1.4904174523    2.9574379646   -2.6989542407
H       -0.9844324541    2.9762390452   -4.3951275633
H        0.2623726723    2.4649080349   -0.8637584298
H        1.9384875387    2.1977105091   -1.3128585143
H        1.3550948845   -0.0012796967   -2.3077515879
H       -0.3219812813    0.1938995003   -1.8400378127
H        1.7894810059    0.4516777378    0.3459634826
H        0.1347638155   -0.1061894403    0.4800855243
H        1.3501405648   -1.1741235286   -0.2282530539
20   
torsion grid (-15,)
C        1.0634660097    4.0789193414   -2.9808635861
C        0.6277764114    2.6061816678   -2.9654900139
C       -0.8495879689    2.4805021406   -3.3674175340
C        0.9181049154    1.9745993332   -1.5925136069
C        0.6947233229    0.4583100844   -1.5087846480
C        1.0530708443   -0.1273012784   -0.1243334415
H        2.1256973433    4.1840368809   -2.7326809104
H        0.4909960695    4.6620522953   -2.2487150054
H        0.9016155446    4.5320697842   -3.9654433217
H        1.2290596929    2.0690843847   -3.7136901276
H       -1.1654874807    1.4367039132   -3.4568451735
H       -1.4955228846    2.9636814352   -2.6232759522
H       -1.0355178249    2.9649328098   -4.3325919466
H        0.3033962332    2.4778223413   -0.8312402276
H        1.9625721508    2.1833772243   -1.3241919564
H        1.3080265487   -0.0193101296   -2.2837233350
H       -0.3433489984    0.2131805702   -1.7552049051
H        1.6458392467    0.5802727151    0.4660645525
H        0.1538411362   -0.3379498591    0.4647690978
H        1.6171648966   -1.0616594769   -0.2019011040
20   
torsion grid (0,)
C        1.0606883152    4.0636760122   -2.9879576358
C        0.6174677954    2.5936570933   -2.9483482113
C       -0.8690922315    2.4718292819   -3.3162127763
C        0.9351569113    1.9739535148   -1.5761227998
C        0.6850507899    0.4634080405   -1.4651116319
C        1.1052241192   -0.1181997206   -0.0933554999
H        2.1283053320    4.1653343508   -2.7624806064
H        0.5064240911    4.6575933381   -2.2504826617
H        0.8812762241    4.5075198667   -3.9737325857
H        1.1990168195    2.0459054306   -3.7043531306
H       -1.1908384409    1.4288039548   -3.3928971010
H       -1.4963938322    2.9615055263   -2.5604319435
H       -1.0746890347    2.9518847017   -4.2795840118
H        0.3499286996    2.4949350368   -0.8040432806
H        1.9900778319    2.1697918765   -1.3395748247
H        1.2307439604   -0.0428333903   -2.2710421024
H       -0.3743168786    0.2532670111   -1.6441204951
H        1.5109965193    0.6605890024    0.5617470509
H        0.2614635208   -0.5739124558    0.4342773281
H        1.8778715504   -0.8869655597   -0.1941997049
20   
torsion grid (15,)
C        0.4047615406    4.1699037074   -2.7961243969
C        0.5237563317    2.6407470471   -2.8756552132
C       -0.6983396739    2.0436662095   -3.5897210682
C        0.7320912155    2.0444522710   -1.4724052286
C        1.0109885081    0.5354899181   -1.4358839604
C        1.3338194915    0.0207890350   -0.0148053468
H        1.2871086249    4.6151445521   -2.3226247756
H       -0.4730042602    4.4621434815   -2.2062457074
H        0.2975644501    4.6136414343   -3.7923949468
H        1.4149440059    2.4028254823   -3.4746941091
H       -0.5974535975    0.9655860520   -3.7474880337
H       -1.6105232155    2.2127309388   -3.0033057589
H       -0.8440982920    2.5084678033   -4.5713076472
H       -0.1533425913    2.2590599737   -0.8565024535
H        1.5696329906    2.5687148207   -0.9911753166
H        1.8360875490    0.3003216611   -2.1194964364
H        0.1373736009    0.0021696411   -1.8258589322
H        1.0518840226    0.7561721468    0.7469940839
H        0.8227421866   -0.9191306804    0.2141933156
H        2.4079876362   -0.1528172240    0.1123891544
20   
torsion grid (30,)
C        0.4640844151    4.1745702115   -2.7843330058
C        0.5546705380    2.6443796600   -2.8786414041
C       -0.6643781021    2.0787709614   -3.6228253262
C        0.7236163226    2.0284809970   -1.4784453115
C        0.9551719493    0.5117242383   -1.4531426036
C        1.2655437630   -0.0156056156   -0.0399932204
H        1.3436098065    4.5967829435   -2.2851576296
H       -0.4214320744    4.4778699824   -2.2118724157
H        0.3893270623    4.6313075904   -3.7776859069
H        1.4526345615    2.3953926199   -3.4628090290
H       -0.5791543039    1.0012836108   -3.7933672768
H       -1.5841236247    2.2558609814   -3.0507399141
H       -0.7840459233    2.5592540109   -4.6003859342
H       -0.1644418045    2.2634130714   -0.8740142841
H        1.5687322803    2.5235140724   -0.9794502716
H        1.7694583363    0.2476205535   -2.1398181153
H        0.0603444807    0.0086059575   -1.8368663019
H        0.7753401094    0.5963635025    0.7258626280
H        0.9559573578   -1.0567421936    0.0932765749
H        2.3398692697    0.0387826452    0.1713957641
20   
torsion grid (45,)
C        0.5416535841    4.1890870522   -2.7926205416
C        0.5986558024    2.6584758806   -2.9045572641
C       -0.6178593004    2.1306732446   -3.6798874190
C        0.7249289755    2.0215342117   -1.5091060455
C        0.9249250115    0.5005629998   -1.4993091797
C        1.1891412410   -0.0483981936   -0.0902888819
H        1.4205418684    4.5844612028   -2.2708467913
H       -0.3478723079    4.5059644437   -2.2338970628
H        0.4974000666    4.6595922027   -3.7813642597
H        1.5022248833    2.3957436075   -3.4738590524
H       -0.5543120443    1.0535544265   -3.8618495962
H       -1.5446359409    2.3226213199   -3.1241831421
H       -0.7064266513    2.6253213032   -4.6536913074
H       -0.1707004103    2.2690170500   -0.9208200811
H        1.5695767801    2.4917475785   -0.9861275063
H        1.7564586872    0.2317730368   -2.1640522918
H        0.0337845633    0.0136676339   -1.9123696616
H        0.4951009367    0.3876750373    0.6377833532
H        1.0930767374   -1.1383359328   -0.0503807156
H        2.2001679442    0.2096192638    0.2468372363
20   
torsion grid (60,)
C        0.6087397868    4.1895298456   -2.7915461499
C        0.6346762651    2.6590634979   -2.9166594816
C       -0.5923022779    2.1633519565   -3.6966327510
C        0.7476919482    2.0078223489   -1.5265530190
C        0.9342897115    0.4852944394   -1.5306636764
C        1.1525905385   -0.0857691577   -0.1245423120
H        1.4960706593    4.5626434992   -2.2676728403
H       -0.2735058674    4.5194184104   -2.2288359310
H        0.5727387308    4.6693141782   -3.7761574301
H        1.5328447755    2.3829740397   -3.4882312066
H       -0.5525492797    1.0863275962   -3.8857354177
H       -1.5151446034    2.3722113726   -3.1405099182
H       -0.6688703700    2.6661625259   -4.6672694103
H       -0.1475493184    2.2617714745   -0.9399371964
H        1.5956483802    2.4624048468   -0.9957711317
H        1.7916367006    0.2285533257   -2.1675005552
H        0.0606992305    0.0013001080   -1.9824662585
H        0.2969979656    0.1306759664    0.5258947748
H        1.2849960187   -1.1729825817   -0.1493703486
H        2.0427170047    0.3486914756    0.3452656686
20   
torsion grid (75,)
C        0.6622389634    4.1910678162   -2.7933972230
C        0.6529772075    2.6605980842   -2.9213903899
C       -0.5880444972    2.1951288616   -3.6978301407
C        0.7560096305    2.0043398592   -1.5328913916
C        0.9325791644    0.4803921452   -1.5413093055
C        1.0987866331   -0.1063878711   -0.1325451732
H        1.5606653624    4.5431607346   -2.2739135009
H       -0.2092018370    4.5396069593   -2.2251341126
H        0.6315228085    4.6734287362   -3.7769302657
H        1.5425857179    2.3652629133   -3.4968144457
H       -0.5762777874    1.1172605111   -3.8859602699
H       -1.5037971553    2.4280029245   -3.1395842923
H       -0.6543683032    2.6986038983   -4.6688762127
H       -0.1381490337    2.2665369513   -0.9478074431
H        1.6073055868    2.4475837110   -0.9985069628
H        1.8173827399    0.2355451136   -2.1445069021
H        0.0823750033   -0.0026399609   -2.0356369081
H        0.1433805345   -0.1297689165    0.4039785885
H        1.4632846449   -1.1390225405   -0.1755761506
H        1.8128815314    0.4736357851    0.4627069300
20   
torsion grid (90,)
C        0.6665919671    4.1605096522   -2.7977419756
C        0.6317455204    2.6279588436   -2.8928061061
C       -0.6418154079    2.1650375004   -3.6163271410
C        0.7736363788    1.9994767032   -1.4950822080
C        0.9397040918    0.4739259022   -1.4773956204
C        1.1270172089   -0.0919848282   -0.0574846851
H        1.5882007106    4.5103386453   -2.3189374389
H       -0.1785895813    4.5332412124   -2.2056797466
H        0.6063866699    4.6227977840   -3.7895179483
H        1.4968398997    2.3078449161   -3.4919516771
H       -0.6534844696    1.0830745697   -3.7792671830
H       -1.5344447400    2.4259264026   -3.0335882092
H       -0.7328435745    2.6469225621   -4.5962831149
H       -0.0989658847    2.2819071868   -0.8871534675
H        1.6455382564    2.4449674666   -0.9973485422
H        1.8145260302    0.2201603162   -2.0907265251
H        0.0832342624   -0.0136806541   -1.9548704835
H        0.1671059383   -0.3487712282    0.4036038102
H        1.7155125909   -1.0162003736   -0.0754433533
H        1.6475659414    0.6161604146    0.5961517718
20   
torsion grid (105,)
C        0.7901998632    4.2524735156   -2.8254431843
C        0.7213723794    2.7303431672   -3.0188767796
C       -0.5169169955    2.3508694591   -3.8450430886
C        0.7606950459    2.0136563188   -1.6576245128
C        0.8802869691    0.4847861700   -1.7255296207
C        0.9726666379   -0.1749209817   -0.3309105498
H        1.6887891306    4.5445084305   -2.2702503217
H       -0.0804401485    4.6134019409   -2.2637341936
H        0.8044150390    4.7762457404   -3.7879421183
H        1.6130504929    2.4219304177   -3.5842454081
H       -0.5453061007    1.2822919234   -4.0788162336
H       -1.4366326258    2.5994109103   -3.3002584226
H       -0.5362890819    2.8966734546   -4.7950577031
H       -0.1386310632    2.2854791668   -1.0850109719
H        1.6132893903    2.3998235575   -1.0826927916
H        1.7746951186    0.2387215528   -2.3120714213
H        0.0342216952    0.0626329952   -2.2772146863
H        0.0342872955   -0.6633850889   -0.0488157375
H        1.7451532765   -0.9508880956   -0.3048013831
H        1.2206917922    0.5553578599    0.4466513213
20   
torsion grid (120,)
C        0.7906549789    4.2364474522   -2.8331896858
C        0.7087688742    2.7124829047   -3.0058004307
C       -0.5508418755    2.3295240569   -3.7974765009
C        0.7769206650    2.0127343024   -1.6369807213
C        0.8650471851    0.4809593197   -1.6872987870
C        1.0207507455   -0.1604110703   -0.2869690487
H        1.7024443107    4.5298409485   -2.3007044327
H       -0.0658128004    4.6098449291   -2.2579907756
H        0.7876956199    4.7479547038   -3.8023593130
H        1.5849203645    2.3917984729   -3.5882892778
H       -0.5871347639    1.2592710711   -4.0222988097
H       -1.4561172727    2.5841552866   -3.2316716578
H       -0.5930085764    2.8682254533   -4.7508022548
H       -0.1007293858    2.3048443066   -1.0416489046
H        1.6520256278    2.3934988283   -1.0925754435
H        1.7110539916    0.1986977392   -2.3261937625
H       -0.0269439276    0.0787292698   -2.1782470187
H        0.1976343013   -0.8437410096   -0.0554866040
H        1.9506382641   -0.7311051698   -0.1992542138
H        1.0361979424    0.6014961226    0.5001917446
20   
torsion grid (135,)
C        0.8365588095    4.2564905080   -2.8413236516
C        0.7369929307    2.7367044424   -3.0390997393
C       -0.5190638119    2.3819276607   -3.8492922385
C        0.7823076898    2.0142476179   -1.6811438509
C        0.8292050875    0.4817379295   -1.7546763966
C        1.0014526221   -0.1795955940   -0.3684816853
H        1.7462406331    4.5294423060   -2.2945457791
H       -0.0211779154    4.6318979643   -2.2693180655
H        0.8506527065    4.7833153369   -3.8021587426
H        1.6148582914    2.4140033249   -3.6177853214
H       -0.5653267361    1.3159999164   -4.0921328814
H       -1.4270286005    2.6376744923   -3.2882636433
H       -0.5454255821    2.9368739049   -4.7938269584
H       -0.0908252507    2.3167214788   -1.0848266945
H        1.6636429597    2.3668346773   -1.1272842007
H        1.6418939262    0.1738506278   -2.4243220251
H       -0.0942955973    0.1180475927   -2.2176457971
H        0.3241514249   -1.0286775052   -0.2323022294
H        2.0252491979   -0.5278235172   -0.2004193709
H        0.7677803778    0.5310904295    0.4329335620
20   
torsion grid (150,)
C        0.9237752226    4.2613747355   -2.8217570384
C        0.7855871147    2.7497263477   -3.0550222320
C       -0.4440923861    2.4506022725   -3.9257904592
C        0.7483695741    1.9995531173   -1.7117862616
C        0.7429809527    0.4684824154   -1.8160752993
C        0.8546149544   -0.2198179622   -0.4430918217
H        1.8166505786    4.4943319020   -2.2305694890
H        0.0539136731    4.6530493817   -2.2797454190
H        0.9965112181    4.8059304636   -3.7699798063
H        1.6774546883    2.4102517580   -3.6017513102
H       -0.5125719769    1.3913583058   -4.1916068454
H       -1.3674749649    2.7245126465   -3.3995559745
H       -0.4117724473    3.0237085979   -4.8592318649
H       -0.1381716065    2.3210799913   -1.1461990189
H        1.6171222536    2.3102724459   -1.1143758376
H        1.5591146783    0.1375557956   -2.4710648100
H       -0.1847176801    0.1473735431   -2.3029421502
H        0.3476778704   -1.1903142990   -0.4313113442
H        1.8961255985   -0.3635705302   -0.1379043093
H        0.3702481955    0.3878586689    0.3310191735
20   
torsion grid (165,)
C        0.8735151801    4.2658649638   -2.8651162702
C        0.7152723701    2.7494227056   -3.0492265118
C       -0.5637984194    2.4346531620   -3.8394773652
C        0.7520470096    2.0354261928   -1.6862251005
C        0.7377753442    0.5026073251   -1.7493233771
C        0.9217210195   -0.1452369869   -0.3698485289
H        1.8006039051    4.5091303588   -2.3337589990
H        0.0387423311    4.6768890195   -2.2836973253
H        0.8927744415    4.7846549464   -3.8302318312
H        1.5726471143    2.3901582039   -3.6369410316
H       -0.6539432770    1.3685909571   -4.0691004969
H       -1.4539483393    2.7313353814   -3.2701033520
H       -0.5810854252    2.9796605243   -4.7899929318
H       -0.0998634941    2.3770847198   -1.0804290095
H        1.6543221852    2.3578306289   -1.1477294470
H        1.5231209134    0.1529506320   -2.4324707189
H       -0.2128093994    0.1643966859   -2.1777864314
H        0.6500985966   -1.2062979613   -0.3825408348
H        1.9541926783   -0.0549629100   -0.0148480529
H        0.2758190636    0.3388296321    0.3728474687
20   
torsion grid (180,)
C        1.0593986289    4.2463863611   -2.8397782251
C        0.8509333036    2.7459566070   -3.0925490908
C       -0.3809095901    2.5173607315   -3.9812994330
C        0.7606315524    1.9834410615   -1.7584901275
C        0.7027762364    0.4555029470   -1.8809432074
C        0.7280623833   -0.2465143303   -0.5180410024
H        1.9553738626    4.4290708390   -2.2357348536
H        0.2031048812    4.6736031288   -2.3030529916
H        1.1697456903    4.7974563148   -3.7805727114
H        1.7320426231    2.3697239862   -3.6326614667
H       -0.4992665756    1.4654668695   -4.2584809510
H       -1.2959001176    2.8326153418   -3.4636702824
H       -0.3079248140    3.0967194576   -4.9085710229
H       -0.1220244287    2.3364588734   -1.2049975804
H        1.6304521864    2.2520284658   -1.1431165320
H        1.5510948859    0.1096490255   -2.4869551318
H       -0.2026556666    0.1563540164   -2.4215374847
H        0.6860355685   -1.3357841963   -0.6269331705
H        1.6416481356   -0.0013239319    0.0361375343
H       -0.1243847175    0.0603466878    0.0992933103
