17   
torsion grid (-165,)
C       -0.1178679964   -0.5656519887    0.8136509902
C        1.3091676954    0.6363566015    2.5155779783
C        1.1380315889   -0.6388091654    1.6857236422
N        3.5248796353   -2.5425215704    2.0225902636
N        2.3041726860   -0.8199752412    0.7825740569
N        3.5359120255   -1.2275223847    1.4288599992
H       -0.2673079010   -1.4934154960    0.2482225666
H       -1.0081673015   -0.4035802814    1.4290571215
H       -0.0348599068    0.2591162757    0.0983109442
H        2.1873611384    0.5917946053    3.1691867406
H        0.4379685377    0.7929968672    3.1600101126
H        1.4213909061    1.5023986296    1.8554404043
H        1.0170645027   -1.4901756890    2.3803105595
H        2.6080741457   -2.7871400883    2.4071013647
H        3.7458313557   -3.2062679479    1.2833846293
H        2.0711134688   -1.5919572602    0.1577856965
H        3.6474858899   -0.6040131357    2.2248912823
17   
torsion grid (-150,)
C       -0.1079127886   -0.5906789388    0.8461835655
C        1.2975529247    0.7232067064    2.4791483151
C        1.1501418946   -0.5976545425    1.7182518601
N        3.5289029527   -2.6240399712    1.9254754042
N        2.3252581506   -0.8047905423    0.8303530440
N        3.5313897000   -1.2357601683    1.5381978827
H       -0.2519181782   -1.5538060044    0.3417037562
H       -0.9982509994   -0.3945373385    1.4514906631
H       -0.0322776536    0.1874868506    0.0795345885
H        2.1923928268    0.7417242846    3.1110363868
H        0.4354241026    0.8871065629    3.1341168618
H        1.3702594572    1.5558366402    1.7723349249
H        1.0519484267   -1.4164607555    2.4555380429
H        2.5930101738   -2.9519738787    2.1853900705
H        3.8438082370   -3.1615523435    1.1208163412
H        2.0844459627   -1.6015087423    0.2396867432
H        3.5060752808   -0.7509650882    2.4334199019
17   
torsion grid (-135,)
C       -0.1226234497   -0.5804999073    0.8655011933
C        1.2954487080    0.7849592985    2.4433026996
C        1.1289780129   -0.5695810499    1.7471013852
N        3.6029345595   -2.6711043562    1.8401377978
N        2.3063705948   -0.8425497284    0.8847893895
N        3.4977694283   -1.2517135858    1.6555219292
H       -0.2833052358   -1.5640896608    0.4078399377
H       -1.0123079047   -0.3364483729    1.4541523107
H       -0.0257495543    0.1577284710    0.0627439901
H        2.1881760729    0.8197304755    3.0770374445
H        0.4315880529    0.9978453855    3.0818551503
H        1.3888963963    1.5782109848    1.6948608035
H        1.0144892100   -1.3522581910    2.5219725775
H        2.6877747484   -3.1144859579    1.9796487847
H        4.0231089435   -3.0597795636    0.9988492015
H        2.0604717074   -1.6730767548    0.3442685143
H        3.3382301800   -0.9112547561    2.6030952431
17   
torsion grid (-120,)
C       -0.1644445141   -0.5452627254    0.8819966169
C        1.3097974689    0.8394629604    2.3938153807
C        1.0705154298   -0.5475667655    1.7865590365
N        3.7487605769   -2.6864518071    1.7457643665
N        2.2379152808   -0.9474234698    0.9776041240
N        3.4099888127   -1.3083863539    1.8105803002
H       -0.3757184278   -1.5464243853    0.4877026962
H       -1.0464317419   -0.2113585814    1.4372210393
H       -0.0117320720    0.1316386872    0.0352773272
H        2.1983995292    0.8607225778    3.0328063676
H        0.4524279625    1.1459418075    3.0025271593
H        1.4594730570    1.5726360565    1.5948647751
H        0.8979010269   -1.2672864405    2.6116064701
H        2.9208330259   -3.2945873485    1.7178072005
H        4.2861878430   -2.8364840637    0.8949505442
H        1.9917222177   -1.8001441657    0.4711486778
H        3.1346549949   -1.1473932521    2.7804462705
17   
torsion grid (-105,)
C       -0.2036442044   -0.5115609616    0.8939923839
C        1.3473478721    0.8687265493    2.3385632397
C        1.0137183237   -0.5356640541    1.8213191697
N        3.8826282846   -2.6443588743    1.6726538965
N        2.1559018788   -1.0763267749    1.0784394089
N        3.2876487607   -1.4017514096    1.9613530398
H       -0.4753617429   -1.5202619821    0.5608603030
H       -1.0688025512   -0.0853625726    1.4110341495
H        0.0060977385    0.0981998237    0.0093522724
H        2.2308253397    0.8614984748    2.9834717498
H        0.5076834967    1.2752017625    2.9124521652
H        1.5571599521    1.5345942131    1.4953169326
H        0.7746646965   -1.1790578507    2.6934154006
H        3.1884361407   -3.3706196904    1.4514033409
H        4.4859413343   -2.5237175675    0.8620744154
H        1.8931420523   -1.9405202454    0.5949927248
H        2.9368630982   -1.4373861095    2.9219837600
17   
torsion grid (-90,)
C       -0.2259159331   -0.4911847018    0.9036496336
C        1.3900348745    0.8786657666    2.2910594219
C        0.9789195439   -0.5292246079    1.8463716599
N        3.9692652385   -2.5763891228    1.6337986076
N        2.0928953935   -1.1789969865    1.1540255898
N        3.1805034291   -1.4987812162    2.0688947189
H       -0.5485023769   -1.5004567662    0.6213626941
H       -1.0718423663    0.0076341931    1.3862836291
H        0.0244827900    0.0582814925   -0.0095783619
H        2.2704234389    0.8478991330    2.9381836308
H        0.5726109597    1.3613873075    2.8373922269
H        1.6385927000    1.4872467215    1.4154791787
H        0.6929373102   -1.1076948291    2.7496633648
H        3.3991043990   -3.3409574440    1.2471685963
H        4.5754609315   -2.2358117422    0.8901277924
H        1.7896368613   -2.0484646137    0.6981580736
H        2.7916432767   -1.7215198534    2.9906378961
17   
torsion grid (-75,)
C       -0.2427749540   -0.4779321874    0.9149130188
C        1.4339255700    0.8794476434    2.2440417360
C        0.9553399553   -0.5253315454    1.8655767055
N        4.0292107471   -2.5020334821    1.6220811042
N        2.0394669706   -1.2637977462    1.2116047311
N        3.0867052153   -1.5991115775    2.1488124695
H       -0.6127988384   -1.4834740841    0.6812032900
H       -1.0657305088    0.0842534910    1.3665843140
H        0.0361431364    0.0127222698   -0.0234281278
H        2.3202070881    0.8294976450    2.8810476009
H        0.6464722289    1.4211562239    2.7791721189
H        1.6959262994    1.4404048162    1.3407862061
H        0.6372535200   -1.0443254491    2.7927318905
H        3.5751474190   -3.2503762543    1.0821370247
H        4.6180864800   -1.9801921646    0.9753995649
H        1.6846444454   -2.1274690272    0.7794736281
H        2.6830256961   -2.0018058407    3.0005410772
17   
torsion grid (-60,)
C       -0.2614546742   -0.4626529861    0.9266903460
C        1.4841714318    0.8631657416    2.1980609961
C        0.9325961744   -0.5288548460    1.8814278032
N        4.0755704677   -2.4121343705    1.6238336506
N        1.9785276105   -1.3510314239    1.2582275997
N        3.0030519206   -1.6976729646    2.2036932616
H       -0.6815641362   -1.4575378791    0.7348654365
H       -1.0558395025    0.1582286396    1.3518565268
H        0.0410496098   -0.0270808491   -0.0315044201
H        2.3700479154    0.7895353504    2.8330531299
H        0.7297383780    1.4662079110    2.7150033805
H        1.7669609013    1.3738823617    1.2713126537
H        0.5891353231   -0.9893934649    2.8281138605
H        3.7347790004   -3.1076151376    0.9491449548
H        4.6264289421   -1.7379083762    1.0948630333
H        1.5680626126   -2.2046015769    0.8579707839
H        2.6189884956   -2.2629033989    2.9660653555
17   
torsion grid (-45,)
C       -0.2794615657   -0.4475643974    0.9370525534
C        1.5407961648    0.8317175860    2.1499978999
C        0.9110970744   -0.5382812355    1.8941865170
N        4.1057312816   -2.3064094373    1.6348694448
N        1.9102298300   -1.4427871039    1.3005092450
N        2.9291085057   -1.7949409504    2.2428346481
H       -0.7528555632   -1.4256722044    0.7864133928
H       -1.0393003937    0.2315669609    1.3355330731
H        0.0435628445   -0.0693296554   -0.0387541018
H        2.4211061863    0.7324994566    2.7894171229
H        0.8239154798    1.4984891744    2.6415445709
H        1.8495168443    1.2867617214    1.2024827618
H        0.5484155943   -0.9392053435    2.8584204339
H        3.8675526465   -2.9123707715    0.8421140022
H        4.6003167454   -1.5061044932    1.2435744735
H        1.4454962979   -2.2845308438    0.9421080335
H        2.5950224973   -2.5022057324    2.9003742817
17   
torsion grid (-30,)
C       -0.2943182056   -0.4341996343    0.9476179510
C        1.6011162996    0.7902403018    2.0999878693
C        0.8967380385   -0.5518310509    1.9011076299
N        4.1143828509   -2.1966064256    1.6537499994
N        1.8443190149   -1.5298250219    1.3327900669
N        2.8660079238   -1.8887020258    2.2696675994
H       -0.8178284403   -1.3917498024    0.8343605055
H       -1.0165275069    0.2958054849    1.3257466492
H        0.0396134663   -0.1078433478   -0.0431906466
H        2.4785539338    0.6661830681    2.7396150527
H        0.9268126672    1.5131189687    2.5720484349
H        1.9260015742    1.1937176985    1.1344728325
H        0.5255581999   -0.8971892722    2.8816791653
H        3.9555319621   -2.6721805413    0.7599450831
H        4.5487497742   -1.3037931067    1.4244329622
H        1.3297751194   -2.3593288401    1.0246252900
H        2.5957637984   -2.7141837226    2.8040219079
17   
torsion grid (-15,)
C       -0.3041181849   -0.4227732454    0.9573038136
C        1.6610383309    0.7424713387    2.0516775705
C        0.8903689569   -0.5689895896    1.9024188336
N        4.1046367259   -2.0859008782    1.6748594971
N        1.7851315288   -1.6085182780    1.3532556232
N        2.8170223457   -1.9701247440    2.2863640286
H       -0.8719289032   -1.3581324226    0.8761564959
H       -0.9885747965    0.3493669472    1.3219282866
H        0.0328225910   -0.1399888049   -0.0457682680
H        2.5310308928    0.5992952457    2.6981190737
H        1.0252607925    1.5144990961    2.4985517320
H        2.0039377291    1.0956590025    1.0726493307
H        0.5191685910   -0.8668404713    2.8973192947
H        3.9940634101   -2.4153989101    0.7112643594
H        4.4755190529   -1.1391593755    1.6074450139
H        1.2266639816   -2.4291138327    1.1117038273
H        2.6182074258   -2.8847183474    2.6874298400
17   
torsion grid (0,)
C       -0.3073045624   -0.4126378037    0.9652792548
C        1.7161495858    0.6945770454    2.0104349764
C        0.8911127523   -0.5874763810    1.9006479646
N        4.0815323607   -1.9793244405    1.6931715491
N        1.7345953122   -1.6777031269    1.3643156583
N        2.7825476164   -2.0386995270    2.2951075938
H       -0.9107036612   -1.3271744984    0.9074925476
H       -0.9582634433    0.3911413382    1.3229979520
H        0.0284043056   -0.1618098592   -0.0465731773
H        2.5689820329    0.5441050484    2.6781624100
H        1.1074820308    1.5093864094    2.4169409731
H        2.0877142639    0.9952502343    1.0242687829
H        0.5239612226   -0.8477683611    2.9068432375
H        3.9913163825   -2.1764638052    0.6920325988
H        4.3874121641   -1.0100425055    1.7643650902
H        1.1368104488   -2.4900971290    1.2079325826
H        2.6585016586   -3.0136299077    2.5592583584
17   
torsion grid (15,)
C       -0.3059712599   -0.4050635294    0.9750342572
C        1.7646477124    0.6537072713    1.9720055293
C        0.8991974489   -0.6043529469    1.8970861690
N        4.0502690316   -1.8842843294    1.7156692107
N        1.6926848050   -1.7375712831    1.3681056505
N        2.7568835012   -2.1051184489    2.2957270983
H       -0.9360227232   -1.3023087204    0.9358439459
H       -0.9287480645    0.4211807445    1.3319442641
H        0.0229371684   -0.1763427105   -0.0441541067
H        2.5946975844    0.5122619215    2.6698638022
H        1.1717499447    1.5033628052    2.3269054084
H        2.1693613969    0.9006377033    0.9839758907
H        0.5413292273   -0.8344826099    2.9134528168
H        3.9685546169   -1.9663263052    0.6975893747
H        4.2931420436   -0.9138932917    1.9064226722
H        1.0583518999   -2.5347984685    1.3032797165
H        2.7071861369   -3.1149750713    2.4139266529
17   
torsion grid (30,)
C       -0.3043341933   -0.4028080781    0.9917917814
C        1.8045818549    0.6281512137    1.9249449308
C        0.9165093084   -0.6165836944    1.8908100885
N        4.0165556116   -1.8130413491    1.7559533913
N        1.6608064882   -1.7862034852    1.3624629566
N        2.7337627197   -2.1808396266    2.2864131825
H       -0.9502510449   -1.2891473372    0.9721516500
H       -0.9051331724    0.4366583409    1.3554980055
H        0.0069402634   -0.1875556062   -0.0357533522
H        2.6125794739    0.5183260592    2.6535259250
H        1.2150950734    1.5029614059    2.2192489973
H        2.2392029617    0.8199587900    0.9375415944
H        0.5776690267   -0.8215446329    2.9186574340
H        3.9464421206   -1.7775143768    0.7340216156
H        4.2063431503   -0.8636917460    2.0685007015
H        0.9899986922   -2.5567966720    1.3829512463
H        2.7534821361   -3.1986964746    2.2439582042
17   
torsion grid (45,)
C       -0.3138958387   -0.4657265686    1.4459356009
C        1.8777380942    0.7388363499    1.0375563004
C        1.1976975009   -0.4707945102    1.6845528165
N        3.5190260774   -2.0730780645    2.7457643282
N        1.7418994558   -1.7049163225    1.1206942397
N        3.1397568768   -1.9105240556    1.3540425663
H       -0.8010752237   -1.3181617938    1.9349976979
H       -0.7600023583    0.4484676670    1.8493387626
H       -0.5309165335   -0.5148251597    0.3738902484
H        2.9623327067    0.6942097205    1.1660794227
H        1.5088544641    1.6677952974    1.4855004509
H        1.6692522172    0.7564602007   -0.0371194663
H        1.3655039827   -0.4176595428    2.7757431470
H        3.6541160791   -1.1415421682    3.1332056992
H        2.7618962764   -2.5156808666    3.2786111472
H        1.1878005008   -2.5337606697    1.3522787609
H        3.3402661924   -2.8274667828    0.9616066300
17   
torsion grid (60,)
C       -0.3074706752   -0.4604768418    1.4624066665
C        1.8618467451    0.7574432697    0.9807735733
C        1.2079474695   -0.4396990383    1.6737119560
N        3.4964212329   -2.1530360136    2.7735151666
N        1.7589043304   -1.6883774674    1.1344173294
N        3.1495050121   -1.8653021954    1.4019138772
H       -0.7753345846   -1.3062618140    1.9812438275
H       -0.7590940244    0.4579217787    1.8497434493
H       -0.5428286338   -0.5403240018    0.3960155259
H        2.9482492333    0.7266241008    1.0951093220
H        1.4892310484    1.6951773389    1.4069298829
H        1.6347697567    0.7419579131   -0.0903870463
H        1.3956786143   -0.3569658910    2.7597131500
H        3.5689949241   -1.2643046753    3.2642784037
H        2.7533567234   -2.6934553437    3.2313605725
H        1.2150659276   -2.4990086572    1.4503539422
H        3.4250073705   -2.7002797311    0.8915787537
17   
torsion grid (75,)
C       -0.2967198604   -0.4545059798    1.4887849059
C        1.8390519401    0.7807325960    0.9097121154
C        1.2226978621   -0.4003590971    1.6603867511
N        3.4656317503   -2.2523018322    2.8085848620
N        1.7862227665   -1.6621631667    1.1504833707
N        3.1658147989   -1.8181438265    1.4744932251
H       -0.7386908883   -1.2810110603    2.0590814484
H       -0.7544927326    0.4747194031    1.8414160687
H       -0.5570046472   -0.5894778384    0.4336017996
H        2.9282356575    0.7636915098    0.9964856891
H        1.4686939537    1.7286714713    1.3150833036
H        1.5801268713    0.7278599028   -0.1532319932
H        1.4387185524   -0.2794784554    2.7372511500
H        3.4475556082   -1.4344843968    3.4140721560
H        2.7517346018   -2.9051752737    3.1524462722
H        1.2420890219   -2.4512501470    1.5193342720
H        3.5305852142   -2.5356910786    0.8546929562
17   
torsion grid (90,)
C       -0.2957350778   -0.4402640866    1.5037857652
C        1.8210523346    0.7891357667    0.8500710417
C        1.2249305368   -0.3657609855    1.6541550388
N        3.4576717974   -2.3384728269    2.8234948796
N        1.7964905977   -1.6459256834    1.1855747809
N        3.1727777548   -1.7730601705    1.5470221127
H       -0.7233290091   -1.2483436395    2.1105243233
H       -0.7590586065    0.4974284404    1.8255287722
H       -0.5677071016   -0.6185578504    0.4579424856
H        2.9109408566    0.7852451021    0.9291449400
H        1.4464495845    1.7499373528    1.2200061377
H        1.5514539296    0.6914679066   -0.2072323532
H        1.4578841514   -0.2039307833    2.7218094262
H        3.3446875881   -1.6104013476    3.5255970325
H        2.8044925290   -3.0970245192    3.0514524300
H        1.2591172926   -2.4053606955    1.6198178764
H        3.6181313122   -2.3544792495    0.8439836630
17   
torsion grid (105,)
C       -0.3013802347   -0.4204226968    1.5125186319
C        1.8028523917    0.7907340882    0.7910826286
C        1.2193237740   -0.3280106535    1.6525840614
N        3.4645373153   -2.4361168171    2.8251251289
N        1.8001770102   -1.6282525763    1.2415140750
N        3.1792440059   -1.7206548182    1.6355334935
H       -0.7210221710   -1.2008664043    2.1598384599
H       -0.7707163456    0.5284996007    1.7897603103
H       -0.5768749471   -0.6518676638    0.4780267891
H        2.8926818188    0.8033158184    0.8727450242
H        1.4189653843    1.7655798338    1.1115270718
H        1.5348974298    0.6375337305   -0.2602367496
H        1.4623444658   -0.1164971893    2.7087071134
H        3.2670267369   -1.8318230954    3.6199196835
H        2.8851691604   -3.2788428171    2.9120718290
H        1.2746651244   -2.3517035966    1.7428256467
H        3.6883595512   -2.1489720125    0.8691351552
17   
torsion grid (120,)
C       -0.3165040327   -0.3911603571    1.5119255922
C        1.7874043229    0.7801686206    0.7309004337
C        1.2024374829   -0.2814495207    1.6613119543
N        3.4952817762   -2.5546827218    2.7975611512
N        1.7928422970   -1.6045071143    1.3431267854
N        3.1868485551   -1.6463548412    1.7587507723
H       -0.7388732322   -1.1300302168    2.2046723258
H       -0.7929907538    0.5713493998    1.7225813534
H       -0.5811088655   -0.6911081702    0.4923645559
H        2.8744078266    0.8249196791    0.8388713727
H        1.3776298331    1.7685406223    0.9663341731
H        1.5495105245    0.5428874756   -0.3122055893
H        1.4408717421   -0.0002437921    2.7013260378
H        3.2304485217   -2.1341638976    3.6857415973
H        2.9952799094   -3.4448609146    2.6951869787
H        1.2931759386   -2.2814690849    1.9244159806
H        3.7235886246   -1.9162024354    0.9398128774
17   
torsion grid (135,)
C       -0.1558588019   -0.4803279843    0.7441217023
C        1.3405430555    0.3451014841    2.6104556923
C        1.0822619675   -0.7727821609    1.5950034095
N        3.5520258827   -2.2413389944    2.2781553010
N        2.2285841329   -0.9039568472    0.6910889843
N        3.4870284757   -1.3071776247    1.2116292943
H       -0.3422702954   -1.2861924324    0.0243092804
H       -1.0440647355   -0.3879499716    1.3768694092
H       -0.0254944416    0.4528976690    0.1865318617
H        2.2365334804    0.1527605077    3.2107203228
H        0.4949185526    0.4437711142    3.2990949017
H        1.4845888034    1.2985435092    2.0913526524
H        0.8872016379   -1.7082582881    2.1509367708
H        2.8352535330   -2.0754478025    2.9886782724
H        3.4019912150   -3.1727994115    1.8948507374
H        2.0253412153   -1.4604317944   -0.1349373368
H        4.0316667932   -0.4847782416    1.4438170968
17   
torsion grid (150,)
C       -0.1577933944   -0.4768627992    0.7498772134
C        1.3542455050    0.3641998564    2.5968235089
C        1.0836772581   -0.7642677355    1.5978806200
N        3.5591846518   -2.2526802846    2.2550212088
N        2.2258665725   -0.9108616576    0.6807902186
N        3.4951330478   -1.2719481511    1.2194184482
H       -0.3467239623   -1.2866212862    0.0350340772
H       -1.0442737315   -0.3808319816    1.3847153415
H       -0.0282133991    0.4521006258    0.1853827296
H        2.2292673543    0.1577603198    3.2228376741
H        0.4970540452    0.4989750449    3.2642578878
H        1.5341977649    1.3039799923    2.0639660299
H        0.8873565252   -1.6916636384    2.1662834288
H        2.7901643438   -2.1647692921    2.9235550387
H        3.4899683990   -3.1705823069    1.8197997930
H        2.0122698530   -1.5668114082   -0.0674019286
H        3.9388696371   -0.4274825673    1.5644370627
17   
torsion grid (165,)
C       -0.1582797654   -0.4803352756    0.7583909931
C        1.3592169531    0.4025096999    2.5812018073
C        1.0868679849   -0.7468710677    1.6079984779
N        3.5686802240   -2.2869832866    2.2161469170
N        2.2270050613   -0.9122568737    0.6808506090
N        3.5037322039   -1.2366250713    1.2401729252
H       -0.3485103868   -1.3055699187    0.0618092010
H       -1.0430485983   -0.3711677278    1.3936027400
H       -0.0308140271    0.4354396006    0.1724669412
H        2.2097772473    0.1933860745    3.2392724999
H        0.4878700870    0.5748368516    3.2207293628
H        1.5734251699    1.3233140871    2.0279849761
H        0.8943727333   -1.6616801466    2.1973889252
H        2.7526891470   -2.2955478633    2.8327491059
H        3.5891416542   -3.1719289615    1.7132717231
H        2.0074695257   -1.6491785298    0.0124771493
H        3.8406552561   -0.3997088606    1.7061639985
17   
torsion grid (180,)
C       -0.1487453301   -0.5082183816    0.7783056438
C        1.3450789102    0.4945872813    2.5553306528
C        1.1033410203   -0.7053638505    1.6368406392
N        3.5634180468   -2.3854726376    2.1412190158
N        2.2481519457   -0.8848025521    0.7104691504
N        3.5186001613   -1.2175927870    1.2997016662
H       -0.3241716619   -1.3712878381    0.1249653487
H       -1.0344115469   -0.3830930130    1.4091447975
H       -0.0400376831    0.3787980503    0.1461030011
H        2.1922028727    0.3346690658    3.2313969516
H        0.4657843400    0.6776603534    3.1809778556
H        1.5444251644    1.3921335000    1.9602860686
H        0.9343344881   -1.5957766352    2.2693611418
H        2.7008147809   -2.5129882434    2.6760243098
H        3.6785820882   -3.1929604240    1.5323920767
H        2.0208763600   -1.6628393953    0.0918176677
H        3.7520065137   -0.4458197623    1.9183423655
