11   
torsion grid (-165,)
C        0.7443830967    0.7981433647   -1.1540527337
C       -0.2545895510   -0.8968446656    0.1801446192
N       -0.6880135570   -0.1894671481    1.4870910108
O       -1.5354657258   -0.7896189181    2.1482014890
O       -0.1831802075    0.8946962409    1.7637277732
O        0.8960126036   -0.3915979772   -0.3614965481
H        1.7071546040    0.9601331363   -1.6398908087
H        0.4956824000    1.6563504060   -0.5254446931
H       -0.0290943885    0.6514470011   -1.9191590121
H       -1.1376518538   -0.8152600018   -0.4665207061
H       -0.0939854085   -1.9323438712    0.4798140819
11   
torsion grid (-150,)
C        0.7744776172    0.7929103167   -1.1519155340
C       -0.2875450409   -0.8826055690    0.1716553581
N       -0.7002196262   -0.2037338572    1.4981783117
O       -1.3410225365   -0.9036540514    2.2817650867
O       -0.3794454873    0.9703716244    1.6698151289
O        0.8835112051   -0.3933128296   -0.3453275399
H        1.7451943201    0.9171824113   -1.6332774220
H        0.5466817833    1.6645459659   -0.5350027704
H        0.0017390532    0.6616677788   -1.9205033827
H       -1.1613090893   -0.7460167500   -0.4791474856
H       -0.1608101865   -1.9317174731    0.4361747214
11   
torsion grid (-135,)
C        0.8025614552    0.7894455594   -1.1340783209
C       -0.3174289251   -0.8832221602    0.1587620243
N       -0.7172330474   -0.2088980552    1.4886635100
O       -1.1205427984   -0.9486556418    2.3850948916
O       -0.6119026418    1.0161980374    1.5535023950
O        0.8708436068   -0.4079170139   -0.3395572056
H        1.7653560408    0.8648024029   -1.6412279559
H        0.6356241465    1.6664750618   -0.5057755882
H        0.0021590057    0.7077411008   -1.8806633145
H       -1.1785437042   -0.7126340292   -0.5006601453
H       -0.2096411261   -1.9376976952    0.4083541818
11   
torsion grid (-120,)
C        0.8223164525    0.7808072742   -1.1051325373
C       -0.3537242843   -0.8936871651    0.1380555694
N       -0.7197467801   -0.2011151595    1.4660626079
O       -0.8683931305   -0.9155300314    2.4561827683
O       -0.8264902457    1.0274098298    1.4379840331
O        0.8510096086   -0.4476100730   -0.3567518010
H        1.7858783979    0.8405809342   -1.6129154629
H        0.6879952543    1.6403374295   -0.4449512444
H        0.0153844078    0.7574864334   -1.8484582158
H       -1.2057912165   -0.6927216974   -0.5234998616
H       -0.2671864520   -1.9503202077    0.3858386164
11   
torsion grid (-105,)
C        0.8379109000    0.7685251823   -1.0675991405
C       -0.3893020059   -0.9087952591    0.1148764961
N       -0.7188271478   -0.1846695947    1.4326446697
O       -0.6053211192   -0.8207704166    2.4790197705
O       -1.0400064531    1.0042420714    1.3393413269
O        0.8294498310   -0.4959676091   -0.3828361975
H        1.8015121972    0.8232110694   -1.5757334281
H        0.7351070282    1.5993526947   -0.3647755326
H        0.0264413913    0.8123232396   -1.8046127333
H       -1.2332525156   -0.6870555761   -0.5489577076
H       -0.3224600940   -1.9647582350    0.3710469487
11   
torsion grid (-90,)
C        0.8524813580    0.7509019043   -1.0346547433
C       -0.4231582436   -0.9157060741    0.0925230762
N       -0.7129092187   -0.1655978067    1.4047161611
O       -0.3456186948   -0.6922637943    2.4534373126
O       -1.2475103387    0.9433711988    1.2992387667
O        0.8073838081   -0.5442304186   -0.4128288216
H        1.8288644515    0.8152641932   -1.5160102496
H        0.7479955423    1.5505727144   -0.2952120735
H        0.0591269093    0.8455487585   -1.7863740124
H       -1.2618709858   -0.6707214935   -0.5683464328
H       -0.3835325754   -1.9715016152    0.3559254888
11   
torsion grid (-75,)
C        0.8735670840    0.7315077624   -1.0032567050
C       -0.4480038632   -0.9182908425    0.0706531908
N       -0.7125437803   -0.1404522897    1.3756111412
O       -0.1144101695   -0.5151551654    2.3820526426
O       -1.4750978776    0.8282384614    1.3035712679
O        0.7877624139   -0.5905606019   -0.4490498567
H        1.8483332423    0.7910003773   -1.4880112668
H        0.8045891633    1.4947695973   -0.2207083885
H        0.0787157399    0.8951970022   -1.7415182078
H       -1.2854539962   -0.6590044476   -0.5855395995
H       -0.4362059445   -1.9716122866    0.3486102540
11   
torsion grid (-60,)
C        0.9013230378    0.7118066521   -0.9840497065
C       -0.4685526587   -0.9074522568    0.0527713329
N       -0.7179750201   -0.1175767410    1.3578811631
O        0.0633347326   -0.3133593139    2.2854975444
O       -1.6837627432    0.6503365225    1.3713423852
O        0.7715518701   -0.6229933174   -0.4745602685
H        1.8733277714    0.7559747419   -1.4756948111
H        0.8695746181    1.4476992079   -0.1722970942
H        0.1071160303    0.9317350084   -1.7086557631
H       -1.3042677106   -0.6311596920   -0.5984182778
H       -0.4904179157   -1.9593732448    0.3385979677
11   
torsion grid (-45,)
C        0.9318343638    0.6961950139   -0.9793314512
C       -0.4874259736   -0.8838689695    0.0397280218
N       -0.7290653898   -0.1098564894    1.3599152654
O        0.1748815067   -0.1156518025    2.1905353711
O       -1.8325545231    0.4247533120    1.4884772583
O        0.7574702745   -0.6384715271   -0.4856249986
H        1.9117464305    0.7193224396   -1.4564012059
H        0.9097910883    1.4229890795   -0.1591745943
H        0.1555581727    0.9442637294   -1.7145909988
H       -1.3179275764   -0.5758377291   -0.6041991680
H       -0.5530563616   -1.9381994899    0.3130809725
11   
torsion grid (-30,)
C        0.9635266848    0.6830309218   -0.9805775151
C       -0.5062255447   -0.8561350894    0.0325631941
N       -0.7468809830   -0.1121225226    1.3709669534
O        0.2181333920    0.0834322885    2.1029429164
O       -1.9184036931    0.1831556791    1.6132780749
O        0.7465633185   -0.6436138132   -0.4808095629
H        1.9458158101    0.6739450241   -1.4533653397
H        0.9593434929    1.4132765051   -0.1642801174
H        0.1994522408    0.9477451828   -1.7230520875
H       -1.3262556345   -0.5140635252   -0.6082518896
H       -0.6138170718   -1.9130130840    0.2829998455
11   
torsion grid (-15,)
C        0.9924117627    0.6713577001   -0.9859845869
C       -0.5253370765   -0.8265809346    0.0285050658
N       -0.7632507930   -0.1269863289    1.3912751969
O        0.2095985574    0.2651615572    2.0270331672
O       -1.9424254318   -0.0534063915    1.7396736832
O        0.7371973295   -0.6418169513   -0.4660920296
H        1.9794588775    0.6290410003   -1.4470887399
H        0.9954773930    1.4150071021   -0.1832237241
H        0.2444269089    0.9379014018   -1.7440888817
H       -1.3289168898   -0.4377038444   -0.6073609566
H       -0.6773886260   -1.8863367438    0.2397662779
11   
torsion grid (0,)
C        1.0195983040    0.6591029897   -0.9928363079
C       -0.5438855140   -0.7975225066    0.0270841706
N       -0.7781501513   -0.1476994905    1.4139587112
O        0.1539222524    0.4351833459    1.9582149326
O       -1.9188959170   -0.2780159705    1.8588936102
O        0.7292907335   -0.6374607279   -0.4466470828
H        2.0090476134    0.5823901528   -1.4444324214
H        1.0313300290    1.4195350964   -0.2073532868
H        0.2850372269    0.9230417149   -1.7648567360
H       -1.3262475782   -0.3552231005   -0.6015312851
H       -0.7397949866   -1.8576939370    0.1919201677
11   
torsion grid (15,)
C        1.0477751652    0.6462412073   -0.9999728691
C       -0.5633959853   -0.7679215481    0.0265414046
N       -0.7947618007   -0.1681511839    1.4347163734
O        0.0486943202    0.5958989376    1.8946268572
O       -1.8529320683   -0.4954340627    1.9719664229
O        0.7207383067   -0.6303637001   -0.4255043674
H        2.0313899842    0.5274670532   -1.4555924630
H        1.0849215737    1.4217438031   -0.2313565404
H        0.3179507157    0.9147448948   -1.7748448846
H       -1.3214976763   -0.2728060937   -0.5935833308
H       -0.7976305231   -1.8257817407    0.1454178695
11   
torsion grid (30,)
C        1.0721032021    0.6305314843   -1.0019235102
C       -0.5863018942   -0.7412130402    0.0226635848
N       -0.8055985152   -0.1831803021    1.4475302608
O       -0.0901322647    0.7431759809    1.8223325228
O       -1.7339886793   -0.6861612395    2.0797521125
O        0.7086582976   -0.6300141583   -0.4116139993
H        2.0558587098    0.4792983339   -1.4476893118
H        1.1200242194    1.4166153684   -0.2455291862
H        0.3554759409    0.9041895240   -1.7871924847
H       -1.3172465864   -0.1941736607   -0.5871734173
H       -0.8576004178   -1.7934307238    0.1012579008
11   
torsion grid (45,)
C        1.0985400419    0.6143579140   -0.9841871405
C       -0.6130449287   -0.7288761094    0.0095846108
N       -0.8253067650   -0.1769936411    1.4355088030
O       -0.2914107969    0.8978493941    1.7099071205
O       -1.5544990122   -0.8332634972    2.1779247701
O        0.6921741794   -0.6392472335   -0.4069183053
H        2.0525372437    0.4197384677   -1.4759831520
H        1.2183961586    1.3786055282   -0.2138914421
H        0.3650736042    0.9475556848   -1.7296148043
H       -1.3200869774   -0.1570200456   -0.6056308124
H       -0.9011207355   -1.7770688952    0.0757148245
11   
torsion grid (60,)
C        1.1146959227    0.5929948951   -0.9554461730
C       -0.6519260703   -0.7201458436   -0.0137035686
N       -0.8287824945   -0.1616828473    1.4117991359
O       -0.5012427798    1.0141201542    1.5896981270
O       -1.2932525504   -0.9178246893    2.2635319284
O        0.6601132174   -0.6658316413   -0.4279731521
H        2.0635003300    0.3812445230   -1.4502592375
H        1.2585361064    1.3248827465   -0.1577011830
H        0.3967144725    0.9832186226   -1.6878757937
H       -1.3358565046   -0.1233005532   -0.6301745754
H       -0.9612476372   -1.7620377999    0.0505189642
11   
torsion grid (75,)
C        1.1223999233    0.5670817668   -0.9167390083
C       -0.6957603942   -0.7153209178   -0.0435864058
N       -0.8189020278   -0.1384866859    1.3780860950
O       -0.7215727505    1.0884367205    1.4820907391
O       -0.9735007847   -0.9305924207    2.3060056993
O        0.6173629259   -0.7021333845   -0.4675213770
H        2.0724460248    0.3506096979   -1.4068259815
H        1.2789853703    1.2499121981   -0.0774986172
H        0.4299153936    1.0247278947   -1.6340513830
H       -1.3624787002   -0.0990863632   -0.6580576916
H       -1.0276429683   -1.7495109390    0.0305124034
11   
torsion grid (90,)
C        1.1501498715    0.0852020669   -1.0154697523
C       -0.7949580255    0.5563985514    0.2764816121
N       -0.7755419781   -0.6663578683    1.2109127314
O       -0.7366136928   -0.4554767408    2.4218156702
O       -0.7436035807   -1.7753254698    0.6671903210
O        0.4925419581    0.9294580256   -0.0560498166
H        2.0672402293    0.6069884361   -1.2909460653
H        0.5198861813   -0.0549019173   -1.9023634642
H        1.3918408662   -0.8914620188   -0.5854071355
H       -1.2502889183    1.3620326960    0.8502732262
H       -1.3994008990    0.2490818058   -0.5840228545
11   
torsion grid (105,)
C        1.1472160346    0.0760024357   -1.0549002638
C       -0.7621131259    0.5561564776    0.3021814403
N       -0.7918477962   -0.6624194671    1.2422142905
O       -1.0293917290   -0.4616286840    2.4320319109
O       -0.5353038332   -1.7564583395    0.7297398042
O        0.5340589002    0.8855621945   -0.0367872321
H        2.0539969624    0.6064587605   -1.3483085370
H        0.4798648553   -0.0251837235   -1.9197612565
H        1.3986548347   -0.9166320877   -0.6724543707
H       -1.1928291401    1.3763176200    0.8739898299
H       -1.3810539507    0.2674623804   -0.5555311435
11   
torsion grid (120,)
C        1.1411661049    0.0723459247   -1.0961773777
C       -0.7239802746    0.5502906730    0.3272326800
N       -0.8032646307   -0.6612369098    1.2768489933
O       -1.3067064207   -0.4818038297    2.3846753147
O       -0.3426516129   -1.7250735481    0.8554741529
O        0.5752936589    0.8433553244   -0.0215675156
H        2.0490019945    0.5995313755   -1.3925380980
H        0.4464344609    0.0301779244   -1.9445803807
H        1.3815076350   -0.9413945769   -0.7686458518
H       -1.1357312839    1.3823001433    0.8960443843
H       -1.3598176193    0.2771450663   -0.5243518291
11   
torsion grid (135,)
C        1.1285832907    0.0681668782   -1.1303019861
C       -0.6886933536    0.5480552315    0.3500083108
N       -0.8042276636   -0.6617769835    1.3019721454
O       -1.5416136692   -0.5298778895    2.2778553745
O       -0.1593966387   -1.6701304121    1.0128736056
O        0.6086396013    0.8128896967   -0.0146506620
H        2.0433600362    0.5813849399   -1.4297249480
H        0.4143366737    0.0792640603   -1.9636250655
H        1.3484580569   -0.9621360042   -0.8440605889
H       -1.0818873838    1.3859652911    0.9237124287
H       -1.3463069380    0.2938327586   -0.4916441423
11   
torsion grid (150,)
C        1.1058110131    0.0604647264   -1.1538917181
C       -0.6625681431    0.5547355381    0.3678187339
N       -0.7868499627   -0.6625424347    1.3131346402
O       -1.7122791950   -0.6197494960    2.1232422769
O        0.0220777874   -1.5788983660    1.1834962264
O        0.6266253036    0.8079283941   -0.0219581786
H        2.0496540051    0.5253727736   -1.4410578774
H        0.3957125461    0.1342439469   -1.9877943018
H        1.2677611936   -0.9865393906   -0.8897408484
H       -1.0376415900    1.3905483834    0.9572287278
H       -1.3470509461    0.3200734917   -0.4580632085
11   
torsion grid (165,)
C        1.0814951683    0.0445958669   -1.1636103033
C       -0.6400880611    0.5770280844    0.3867691278
N       -0.7689903976   -0.6655319583    1.3009772569
O       -1.8272743395   -0.7462024506    1.9246372082
O        0.1579842698   -1.4695391616    1.3339202780
O        0.6393162681    0.8174311755   -0.0349720570
H        2.0355425961    0.4762737179   -1.4680047762
H        0.3635540049    0.1297367354   -1.9897376391
H        1.2182177404   -1.0038726912   -0.8887645094
H       -0.9805401880    1.4024812336    1.0117279540
H       -1.3579650493    0.3832370149   -0.4205280677
11   
torsion grid (180,)
C        1.0528301818    0.0258506182   -1.1648471456
C       -0.6211795503    0.6071708468    0.4054819062
N       -0.7471778472   -0.6686913673    1.2753986004
O       -1.8814606801   -0.8956661422    1.6974604709
O        0.2548537653   -1.3464590125    1.4786208485
O        0.6473887876    0.8377429971   -0.0512309566
H        2.0163435612    0.4187780960   -1.4905342343
H        0.3277179194    0.1102876820   -1.9848089575
H        1.1638384898   -1.0197865873   -0.8653378595
H       -0.9200473092    1.4165331529    1.0726478887
H       -1.3718553061    0.4598772832   -0.3804360889
