24   
torsion grid (-165,)
C        0.3448961724   -1.1129481356    3.1067272320
C       -0.9741862709   -2.6249275998    1.2069579036
C       -0.6321378799    1.4431037126   -0.8106350837
C       -0.8230062107   -0.0798096395   -1.0712080118
C        0.5493572292    1.1258294861    0.1527081922
C        0.2296558178   -0.3787240881    0.0299229827
C       -1.8501419425    0.1886807422    2.0964422949
N        1.3275604622   -1.2174043466   -0.3240523625
S       -0.5509389174   -1.0822109914    1.6984934671
H        0.5152331071   -0.1322582912    3.5427542591
H        1.1706693759   -1.8161511267    3.0719063101
H       -1.4800969793   -2.6367262730    0.2435494557
H       -1.4255697733   -3.2073381607    2.0048428901
H       -0.3703439775    2.0361079119   -1.6892937371
H       -1.4840974195    1.9154398572   -0.3158532047
H       -1.8286751200   -0.4810313213   -0.9227402640
H       -0.4579265193   -0.4055890448   -2.0482411692
H        1.5299082311    1.3499036023   -0.2744420915
H        0.5057699479    1.5572370858    1.1569770664
H       -2.4923216815    0.3031819013    1.2231561511
H       -2.4125444138   -0.2267927438    2.9331674990
H       -1.3980399350    1.1427300428    2.3754164799
H        2.0654071197   -1.1428002454    0.3773567200
H        1.0285571516   -2.1948064740   -0.3408010686
24   
torsion grid (-150,)
C        0.3020485606   -0.9403787772    3.1320827832
C       -0.8500296229   -2.6944424305    1.3079723936
C       -0.5527292445    1.5170701381   -0.6971070319
C       -0.8628642498    0.0365634049   -1.0510017278
C        0.6419166511    1.0465742082    0.1828749689
C        0.2042638187   -0.4204824491   -0.0172189277
C       -1.9353644029    0.1004135451    1.9933112282
N        1.2225304395   -1.3134590361   -0.4606902303
S       -0.5410315479   -1.0988133492    1.6973112755
H        0.3500559867    0.0820278870    3.4966422073
H        1.2069803832   -1.5394475314    3.1670424083
H       -1.3282584842   -2.7995676066    0.3348453158
H       -1.2857257037   -3.2521707577    2.1315433573
H       -0.2869163410    2.1500685479   -1.5461969086
H       -1.3459950558    2.0112902507   -0.1317188659
H       -1.8887950353   -0.3095689757   -0.9053927431
H       -0.5457843512   -0.2413205035   -2.0594661145
H        1.6180650899    1.2318667569   -0.2723424833
H        0.6728082646    1.4030759773    1.2175350621
H       -2.6100628794    0.0672893372    1.1388860259
H       -2.4365458583   -0.2616122921    2.8914795379
H       -1.5546942283    1.1117913469    2.1504117041
H        2.0130786284   -1.2881984471    0.1837717147
H        0.8800367566   -2.2758733841   -0.4614630389
24   
torsion grid (-135,)
C        0.2441595700   -0.7759197183    3.1566388886
C       -0.6844221141   -2.7501512958    1.4332884925
C       -0.4126651919    1.6033029919   -0.6289132268
C       -0.8917727099    0.1800597233   -1.0204396099
C        0.7404176468    0.9775004671    0.2071060728
C        0.1658902303   -0.4326596604   -0.0580707873
C       -2.0457813806   -0.0360745378    1.9200637989
N        1.0850062853   -1.3696460786   -0.6074456174
S       -0.5363875076   -1.1116938424    1.7140175337
H        0.1406799127    0.2585683794    3.4724694730
H        1.2255544043   -1.2347127776    3.2341831561
H       -1.1256179655   -2.9752918075    0.4632931871
H       -1.0792981169   -3.2899378837    2.2884698915
H       -0.0949616913    2.2270730574   -1.4669628754
H       -1.1350884680    2.1668838552   -0.0335223320
H       -1.9410655677   -0.0577038704   -0.8395742273
H       -0.6519092755   -0.0875411808   -2.0529235750
H        1.7293948188    1.0992477315   -0.2415222920
H        0.8001936916    1.2730968788    1.2595484331
H       -2.7546280300   -0.2864451856    1.1319791604
H       -2.4546259128   -0.2967233485    2.8968283436
H       -1.7819835297    1.0232587915    1.8843844964
H        1.8828782483   -1.4897237439    0.0162589112
H        0.6630202276   -2.2920710850   -0.7060433849
24   
torsion grid (-120,)
C        0.1529509060   -0.5452362991    3.1781713186
C       -0.4444261074   -2.7246404055    1.5981547048
C       -0.2698954132    1.6670048099   -0.4985869585
C       -0.8702330441    0.3179722259   -0.9837072571
C        0.8957040122    0.8918863182    0.1807370497
C        0.1595514352   -0.4351426159   -0.1046837673
C       -2.1902945168   -0.2020682174    1.8379023349
N        0.9047076206   -1.4633797227   -0.7383587027
S       -0.5387331515   -1.0624837666    1.7413947019
H       -0.0901968887    0.4838688876    3.4311775084
H        1.1854530027   -0.8621257120    3.2915395267
H       -0.7938712455   -3.1029167566    0.6406999834
H       -0.7969217703   -3.2386531575    2.4871863621
H        0.0177156447    2.3618946127   -1.2904133041
H       -0.9089680846    2.1979406584    0.2120412710
H       -1.9312525362    0.1436513495   -0.8010457392
H       -0.6649018233    0.1218079228   -2.0404012641
H        1.8364802611    0.9441735217   -0.3720901231
H        1.0870858395    1.1184161882    1.2343779726
H       -2.8267572626   -0.6109274858    1.0533682233
H       -2.5912437986   -0.4498217071    2.8213720728
H       -2.0786134767    0.8789792520    1.7261887225
H        1.5477127047   -1.9115029515   -0.0852860663
H        0.2959352670   -2.1960010891   -1.0966266594
24   
torsion grid (-105,)
C        0.0440609292   -0.3112171496    3.1457146893
C       -0.2501754436   -2.6481098802    1.7241979507
C       -0.1397564019    1.6863620193   -0.3248581482
C       -0.8462069245    0.4411607809   -0.9319666575
C        1.0355348574    0.7713046451    0.1212236969
C        0.1438636910   -0.4556336699   -0.1549420571
C       -2.3039096753   -0.3736449050    1.7403101768
N        0.7116557676   -1.5575859382   -0.8405568517
S       -0.5497732535   -0.9980695198    1.7318364172
H       -0.2744408898    0.7200307687    3.2839490300
H        1.0974817972   -0.5278725113    3.2982568070
H       -0.5915870622   -3.1496292232    0.8224513772
H       -0.5369758242   -3.1082818808    2.6655430838
H        0.1018383562    2.4928248656   -1.0206019635
H       -0.6837838615    2.1086151818    0.5251678933
H       -1.9169569801    0.3205108630   -0.7625013097
H       -0.6499039118    0.3432995188   -2.0045081451
H        1.8765111191    0.7882963303   -0.5762206867
H        1.4015223204    0.8989414723    1.1442041594
H       -2.8316870521   -0.8516042163    0.9143016276
H       -2.7192095167   -0.6947082321    2.6960443999
H       -2.3379110489    0.7146714712    1.6483073979
H        1.3123020397   -2.1034581069   -0.2212052650
H       -0.0055054574   -2.1835068238   -1.2010357118
24   
torsion grid (-90,)
C       -0.0911061849   -0.1289765915    3.1066792517
C       -0.0609910977   -2.5558062963    1.8185094943
C        0.0304736035    1.7032101060   -0.2357140339
C       -0.8407417501    0.5702011652   -0.8486376362
C        1.1289942772    0.6512899545    0.0826000958
C        0.0897180978   -0.4597087303   -0.1675640869
C       -2.3807517010   -0.5633568739    1.6589615705
N        0.4939911354   -1.5883357698   -0.9255604227
S       -0.5635265483   -0.9556115316    1.7194837660
H       -0.4856958432    0.8845800941    3.1460224274
H        0.9705396340   -0.2465262791    3.3055231892
H       -0.3719957038   -3.1609317114    0.9711607451
H       -0.2886605493   -2.9704654447    2.7970244181
H        0.3080077450    2.5214333637   -0.9039698583
H       -0.4099855464    2.1222611663    0.6738604123
H       -1.9066137384    0.5592688650   -0.6179275576
H       -0.7168675499    0.4980284747   -1.9335978287
H        1.9099238050    0.6073637157   -0.6804765877
H        1.5836735640    0.6955456416    1.0758486685
H       -2.8021585820   -1.0451259889    0.7747501522
H       -2.7965684703   -0.9982725997    2.5681404347
H       -2.5516938451    0.5157760291    1.6344448891
H        1.1364710404   -2.1705661116   -0.3875989530
H       -0.2974482176   -2.1625787872   -1.2088506390
24   
torsion grid (-75,)
C       -0.2618196677    0.0148257056    3.0683265961
C        0.1220109592   -2.4379330858    1.9007163194
C        0.2458753953    1.7170749957   -0.2274001608
C       -0.8297761693    0.7079896509   -0.7253370359
C        1.2056074849    0.5297718651    0.0629965175
C        0.0253548044   -0.4419723175   -0.1387086720
C       -2.4355444567   -0.7768917171    1.5736476545
N        0.2565448134   -1.5677147855   -0.9801110260
S       -0.5858813831   -0.9257524687    1.7144080423
H       -0.7692833347    0.9769376757    3.0455535071
H        0.7967560605    0.0221248461    3.3113914741
H       -0.1007343068   -3.1248363465    1.0891772267
H       -0.0657484425   -2.8250331409    2.8989829447
H        0.5897484989    2.4534658154   -0.9573539484
H       -0.0571138718    2.2341359249    0.6870526558
H       -1.8465482323    0.8423901933   -0.3532080989
H       -0.8626445175    0.6236861454   -1.8149490917
H        1.9567921126    0.3778007898   -0.7154711158
H        1.6870456374    0.5163843095    1.0438587748
H       -2.7444756573   -1.2193876471    0.6235845504
H       -2.8292458982   -1.3526263645    2.4115792458
H       -2.7579139435    0.2645625907    1.6401954939
H        0.9419705747   -2.1941754162   -0.5603967257
H       -0.5939888858   -2.0921313583   -1.1754232173
24   
torsion grid (-60,)
C       -0.4280117086    0.1309644462    3.0221393475
C        0.2836969674   -2.3068948087    1.9822767921
C        0.4257713045    1.7006804107   -0.2178207442
C       -0.8080360754    0.8272796081   -0.5885622195
C        1.2567270996    0.4109937665    0.0314432410
C       -0.0313916486   -0.4263057249   -0.1120361273
C       -2.4471120281   -0.9610737454    1.4951917645
N        0.0267486997   -1.5276365867   -1.0214026115
S       -0.5951588814   -0.9057373448    1.7174928356
H       -1.0624042673    1.0113544138    2.9560530822
H        0.6108015547    0.2764547906    3.3019395926
H        0.2109228187   -3.0296361847    1.1750878419
H        0.1094383388   -2.6974735706    2.9811744952
H        0.7924303070    2.3621615610   -1.0062267801
H        0.2712501624    2.2799713056    0.6959224201
H       -1.7405357821    1.0687498053   -0.0739106382
H       -1.0008141175    0.7728595660   -1.6626737440
H        1.9607562444    0.1774164268   -0.7704496306
H        1.7677356419    0.3356547086    0.9938859375
H       -2.6673068444   -1.3969330762    0.5174552974
H       -2.8102637870   -1.6091205536    2.2931414963
H       -2.8885673719    0.0334882887    1.5811886439
H        0.7206965848   -2.2112215081   -0.7263774363
H       -0.8703856373   -1.9933001342   -1.1418209453
24   
torsion grid (-45,)
C       -0.6032284884    0.2085313617    2.9880605584
C        0.4173640219   -2.1701199128    2.0564659921
C        0.5818779926    1.6703504703   -0.1858135207
C       -0.7558064196    0.9345662790   -0.4791912631
C        1.2938827572    0.2994290799   -0.0143073960
C       -0.0779967535   -0.4078105877   -0.1062483914
C       -2.4317638269   -1.1324795459    1.4433607305
N       -0.1808334867   -1.4671460191   -1.0637427968
S       -0.5994666571   -0.8885575650    1.7268032410
H       -1.3589217835    0.9834380343    2.8888853705
H        0.3970268787    0.5032407344    3.2894557868
H        0.5311592143   -2.8684484813    1.2321286361
H        0.2410254489   -2.5993253529    3.0381837046
H        0.9571528874    2.3047119782   -0.9922604697
H        0.5489210683    2.2462675570    0.7421878557
H       -1.6080090966    1.2442697252    0.1311183402
H       -1.0481658624    0.9447643418   -1.5317578374
H        1.9313019585    0.0227680086   -0.8573518665
H        1.8410074256    0.1428402184    0.9173948370
H       -2.5638938094   -1.7813334821    0.5754623221
H       -2.7988916090   -1.6264061187    2.3432522621
H       -2.9424123754   -0.1790457937    1.2944975783
H        0.4439708990   -2.2395734890   -0.8452143839
H       -1.1283128092   -1.8222355803   -1.1682573793
24   
torsion grid (-30,)
C       -0.7856237702    0.2477255578    2.9831202091
C        0.5436083467   -2.0052247732    2.1223093388
C        0.7253524654    1.6193987073   -0.1236873649
C       -0.6821932392    1.0220838970   -0.3986937193
C        1.3223761720    0.1838831998   -0.1082614250
C       -0.1158495676   -0.3885586964   -0.1183420516
C       -2.3912070830   -1.2835911366    1.3909067549
N       -0.4019240684   -1.4076328319   -1.0823359087
S       -0.5959542198   -0.8562532950    1.7454276069
H       -1.6740880115    0.8673057198    2.8936988525
H        0.1444533375    0.7119901576    3.2941690714
H        0.8834257099   -2.6017969252    1.2799230488
H        0.3831904777   -2.4995746019    3.0742460223
H        1.1138706105    2.2935160128   -0.8904619378
H        0.7837592434    2.1090548326    0.8513538760
H       -1.4836409605    1.3701761225    0.2602147871
H       -1.0037302249    1.1125749487   -1.4393503903
H        1.8431876763   -0.0794224807   -1.0325378364
H        1.9380212318   -0.0885769691    0.7505028028
H       -2.4022992032   -2.2033452742    0.8052666287
H       -2.8553241959   -1.4521921315    2.3629071279
H       -2.8931334742   -0.4723668883    0.8567765510
H        0.0874844291   -2.2776276277   -0.8846237383
H       -1.3967741079   -1.5988496643   -1.1694163951
24   
torsion grid (-15,)
C       -0.9636825607    0.2922131188    2.9568114594
C        0.6339820757   -1.8343495987    2.1928256563
C        0.8569650788    1.5516793624   -0.0711386949
C       -0.5991148365    1.0983845148   -0.3574677636
C        1.3256717361    0.0767578091   -0.2106379488
C       -0.1578985771   -0.3669562560   -0.1539781152
C       -2.3364807576   -1.4351858985    1.3945508440
N       -0.5844620141   -1.3380611658   -1.1093053922
S       -0.5979445458   -0.8122056390    1.7566581266
H       -1.9270478871    0.7789800902    2.8321518936
H       -0.1166050332    0.8939568700    3.2702145287
H        1.0707042648   -2.3967428999    1.3720769820
H        0.5023745718   -2.3197677648    3.1534976218
H        1.2856702918    2.2678703230   -0.7756707975
H        0.9763518058    1.9315983497    0.9464553166
H       -1.3703160718    1.4800902295    0.3198589651
H       -0.9076652722    1.2654341025   -1.3931178652
H        1.7397587493   -0.1455010898   -1.1982457877
H        1.9848513127   -0.3088831183    0.5676501774
H       -2.2530176405   -2.3705979911    0.8413398304
H       -2.7945557148   -1.6126005396    2.3676798036
H       -2.9081727525   -0.6925093500    0.8296550707
H       -0.1771410787   -2.2557906225   -0.9430614994
H       -1.5952375701   -1.4251169760   -1.1656905010
24   
torsion grid (0,)
C       -1.1639683563    0.3310952572    2.9005217972
C        0.6954188124   -1.6286947129    2.2894277967
C        1.0110353843    1.4672005352   -0.0411333726
C       -0.4910437972    1.1883172107   -0.3089740432
C        1.3141907308   -0.0311527467   -0.3096740582
C       -0.2033715663   -0.3237750608   -0.1915634210
C       -2.2636244538   -1.6391391095    1.4235824620
N       -0.7728901894   -1.2025449722   -1.1550522505
S       -0.6276557800   -0.7738695305    1.7603803745
H       -2.1671700359    0.7015167896    2.7061490344
H       -0.4063255591    1.0528930386    3.1910178498
H        1.1786349163   -2.2293094895    1.5244074374
H        0.5757396690   -2.0520789982    3.2812883066
H        1.4953105843    2.1917408874   -0.6995602071
H        1.1992305815    1.7423042399    0.9996400963
H       -1.2063560694    1.6127012925    0.4031564387
H       -0.7956861870    1.4380770878   -1.3292404320
H        1.6368543956   -0.2164492033   -1.3387352880
H        1.9840305465   -0.5289003142    0.3901086328
H       -2.0690975097   -2.5352251021    0.8344773374
H       -2.6487228112   -1.9082450068    2.4071154926
H       -2.9648353254   -0.9741573532    0.9098695756
H       -0.4339928845   -2.1578144705   -1.0684421076
H       -1.7887175214   -1.2017944087   -1.1556555409
24   
torsion grid (15,)
C       -1.4056785939    0.3450771300    2.8134628866
C        0.7171533998   -1.3632102114    2.4015803549
C        1.1907674008    1.3522455719   -0.0476374592
C       -0.3485627832    1.2750740139   -0.2386798075
C        1.2877755675   -0.1535818534   -0.4092096172
C       -0.2443616150   -0.2635544244   -0.2058626614
C       -2.1540934680   -1.8784686329    1.4457134963
N       -0.9805989557   -0.9971767371   -1.1755177516
S       -0.6900803221   -0.7442916005    1.7578199882
H       -2.4241821138    0.6079450713    2.5380257899
H       -0.7400238149    1.1530687525    3.1026430951
H        1.2750870705   -2.0013201432    1.7237641043
H        0.5932039183   -1.7058561005    3.4247018907
H        1.7283182034    2.0484752237   -0.6954301068
H        1.4678044562    1.5318474071    0.9936598980
H       -0.9723155887    1.7442470931    0.5286386083
H       -0.6708898324    1.6087519930   -1.2291007948
H        1.5146554620   -0.3168274866   -1.4674967538
H        1.9417870289   -0.7660432003    0.2082802806
H       -1.8329041818   -2.6967007237    0.8006867456
H       -2.4185055334   -2.2562543520    2.4332529066
H       -2.9996902491   -1.3408764870    1.0070848270
H       -0.7612614972   -1.9897547997   -1.1814297002
H       -1.9864163839   -0.8701196437   -1.1058383089
24   
torsion grid (30,)
C       -1.6811179786   -2.1231493703    1.1211157175
C       -1.7696114040    0.2022303988    2.5647884197
C       -0.9219697373    0.9251558355   -1.2143060209
C       -0.4171802953   -0.5476493729   -1.2231719147
C        0.0786181554    1.2553159507   -0.0698438608
C        0.3398125060   -0.2535236741    0.0937001721
C        0.6150519150   -1.0549248844    2.9344921402
N        1.7024696318   -0.6767121339    0.1397076309
S       -0.7835032426   -0.8403256619    1.7004986399
H       -1.1394263408   -2.7641942947    0.4292127330
H       -2.2622858382   -2.6127137157    1.8973555177
H       -1.2256890210    0.9342761089    3.1568446836
H       -2.6258324217    0.5462296409    1.9931512889
H       -0.7920710785    1.4876409264   -2.1416526944
H       -1.9628875677    1.0006492567   -0.8898795190
H       -1.1884635343   -1.3148744852   -1.1971106208
H        0.2997851626   -0.7525880187   -2.0230952407
H        0.9790700385    1.7709646676   -0.4138940467
H       -0.3363510823    1.7741288848    0.7999220400
H        1.1535600726   -0.1139064822    3.0816786868
H        0.1281313190   -1.3619789671    3.8599491288
H        1.2833573716   -1.8379925964    2.5768639552
H        2.2185439773   -0.2968329895    0.9282466948
H        1.8031804312   -1.6889756572    0.1240579571
24   
torsion grid (45,)
C       -1.5015363499   -2.2882482875    1.1378297366
C       -1.9162870576    0.0852844738    2.4411215787
C       -0.8588231265    1.0615173429   -1.1038882667
C       -0.5405597804   -0.4613942061   -1.1919712618
C        0.2196001957    1.2176351401    0.0068093755
C        0.3119494075   -0.3176011074    0.0897244830
C        0.6044332204   -0.8157337798    2.9337585214
N        1.6188786011   -0.8990412854    0.0452489889
S       -0.7880892610   -0.8817098734    1.6745764717
H       -0.8912476288   -2.8603339320    0.4419210597
H       -2.0314115270   -2.8326014711    1.9131021998
H       -1.4877075793    0.8970841952    3.0233259397
H       -2.7898077554    0.2918839369    1.8315630922
H       -0.6916269653    1.6424368952   -2.0137190349
H       -1.8679842210    1.2569526413   -0.7326929483
H       -1.3922409541   -1.1389048565   -1.1371814293
H        0.0968647933   -0.7207849460   -2.0413733082
H        1.1580786923    1.6487252062   -0.3512162439
H       -0.1011740974    1.7358362061    0.9162130159
H        1.0973751105    0.1608976858    2.9095171612
H        0.1330594359   -0.9838007151    3.9021095485
H        1.3089588323   -1.6170136095    2.7112493880
H        2.2123239389   -0.6090942219    0.8174696525
H        1.5921651144   -1.9157420656    0.0051337684
24   
torsion grid (60,)
C       -1.3126465583   -2.4295860439    1.2063715951
C       -2.0273071952   -0.0175378908    2.3096803755
C       -0.7830304429    1.1836353304   -1.0094475562
C       -0.6522086498   -0.3598354429   -1.1546637789
C        0.3391140087    1.1728134384    0.0664598271
C        0.2816044767   -0.3709714598    0.0788653855
C        0.5657872740   -0.6302702844    2.9289424333
N        1.5276279302   -1.0636422510   -0.0648779684
S       -0.7839149180   -0.9174258645    1.6539435356
H       -0.6255717915   -2.9775687284    0.5663633122
H       -1.8210889314   -2.9735402617    1.9953503496
H       -1.7025270940    0.8801113967    2.8293758607
H       -2.9033540187    0.0364149051    1.6719746123
H       -0.5724814192    1.7689845559   -1.9074494099
H       -1.7489900753    1.4876344008   -0.5988690846
H       -1.5690199338   -0.9439275649   -1.0614645501
H       -0.1076623930   -0.6697783362   -2.0501499842
H        1.3066196589    1.5267946876   -0.2980597110
H        0.0971671730    1.6784956956    1.0063051301
H        0.9905582100    0.3726817978    2.8335374617
H        0.0902122333   -0.7586045614    3.9015315598
H        1.3292464917   -1.3944466424    2.7800254025
H        2.1731195265   -0.8742350041    0.6976628856
H        1.4039374766   -2.0699465058   -0.1527761950
24   
torsion grid (75,)
C        0.1610217044   -2.4158627495    2.2435663063
C       -2.1836757639   -1.6143956307    1.0508539835
C       -0.4915140854    0.6701080065   -1.7213756975
C        0.0313483520   -0.6718853528   -1.1273873429
C       -0.8080844863    1.1796738259   -0.2846737863
C        0.0500037203    0.0104745018    0.2600259054
C       -0.5912476942    0.0986310777    3.0660326253
N        1.3680664350    0.4192244517    0.6440718862
S       -0.7127181415   -1.1246109859    1.6550557086
H        1.0156416948   -2.1501766676    2.8580501289
H        0.2379539665   -3.2426213228    1.5461646071
H       -2.7235167390   -0.8522092875    0.4980566652
H       -2.7447186503   -2.2373701514    1.7400915377
H        0.3022281935    1.2518394880   -2.1935937946
H       -1.3420934730    0.5949726195   -2.4032418071
H       -0.7050916323   -1.4752737421   -1.1812008732
H        1.0027964522   -1.0262761066   -1.4783252192
H       -0.4493159997    2.1781093312   -0.0195770956
H       -1.8659417547    1.0990271878   -0.0280177712
H       -0.9794488101    1.0561496265    2.7108030882
H       -1.2321822391   -0.3043169381    3.8506088613
H        0.4338060847    0.1980657903    3.4302691870
H        1.3635797267    1.0671919048    1.4285153374
H        1.9500907137   -0.3857730166    0.8783394705
24   
torsion grid (90,)
C        0.2238028150   -2.3354586918    2.3915895854
C       -2.0985403379   -1.7724174783    1.0012200943
C       -0.5281575201    0.7823478684   -1.6648495395
C       -0.0747051778   -0.6296247196   -1.1945141915
C       -0.7215413154    1.2063922765   -0.1808344409
C        0.0882983498   -0.0490196429    0.2313716503
C       -0.7085472158    0.1636043441    2.9710735924
N        1.4479661899    0.2408745944    0.5651666929
S       -0.6912695984   -1.1642216018    1.6466262721
H        0.9865601767   -1.9755400084    3.0729009447
H        0.3900256955   -3.2258076691    1.7966479773
H       -2.6214429088   -1.0858894100    0.3415907736
H       -2.6879129809   -2.3443697087    1.7109527360
H        0.2801118877    1.3375050328   -2.1444820885
H       -1.4187385966    0.8190642620   -2.2973367939
H       -0.8642026262   -1.3796385962   -1.2512158560
H        0.8435124829   -1.0269245534   -1.6328125137
H       -0.2918372406    2.1634103223    0.1288331358
H       -1.7668921781    1.1630686832    0.1345824962
H       -1.1847888858    1.0528153810    2.5553255360
H       -1.3062183739   -0.2467849646    3.7854376057
H        0.3014547707    0.3884590590    3.3224051259
H        1.5235888738    0.8576362969    1.3715304885
H        1.9664612884   -0.6167852158    0.7619026277
24   
torsion grid (105,)
C        0.2792679890   -2.2272813225    2.5301939305
C       -2.0204442985   -1.9569152333    1.0003444106
C       -0.4775159951    0.9138742053   -1.6126704137
C       -0.2062816359   -0.5716899697   -1.2462577190
C       -0.6122023101    1.2409532277   -0.0999606337
C        0.0961582224   -0.1050475104    0.1995203030
C       -0.8544126494    0.2085296115    2.8860247718
N        1.4915996115    0.0456949427    0.4606388693
S       -0.6907531967   -1.1994685925    1.6521086028
H        0.9599305341   -1.7454300618    3.2232197457
H        0.5726387102   -3.1336854389    2.0129866011
H       -2.5698719917   -1.3536650614    0.2834734782
H       -2.5927898195   -2.5203934874    1.7308382512
H        0.3998102623    1.3910517062   -2.0530947525
H       -1.3540143029    1.1137447508   -2.2344360422
H       -1.0927898546   -1.2017316819   -1.3080973743
H        0.6240772812   -1.0693479001   -1.7527386235
H       -0.1175547321    2.1397429650    0.2796241262
H       -1.6576359001    1.2412899953    0.2186604758
H       -1.5595795123    0.9343699102    2.4824693949
H       -1.2452019921   -0.2424557771    3.7986129980
H        0.1142245996    0.6781087494    3.0786861055
H        1.6641435754    0.6057779376    1.2937609874
H        1.9361849799   -0.8633301049    0.5992044177
24   
torsion grid (120,)
C        0.3461200412   -2.0705088681    2.6630652022
C       -1.8810035398   -2.1633621256    1.0264988636
C       -0.4111161777    1.0326424688   -1.5628379348
C       -0.3692459003   -0.4928829352   -1.2699920857
C       -0.4480406606    1.2978285246   -0.0327140604
C        0.0876461713   -0.1434465308    0.1669778635
C       -1.0559632010    0.2411472936    2.8253009746
N        1.5070092317   -0.1734210259    0.3111965256
S       -0.6865255993   -1.2066476072    1.6831359538
H        0.9407737259   -1.4747029751    3.3473424041
H        0.7663718045   -2.9620735930    2.2115628652
H       -2.4767892485   -1.6766349009    0.2613469147
H       -2.4070937600   -2.7520173555    1.7722949973
H        0.5192030022    1.3852640933   -2.0111306269
H       -1.2627815257    1.3981555297   -2.1425499275
H       -1.3563637183   -0.9508820216   -1.3027022612
H        0.3271756823   -1.1052998383   -1.8473171457
H        0.1710594852    2.1048627806    0.3694336277
H       -1.4743120238    1.4152928882    0.3214169332
H       -1.9034715299    0.7874829022    2.4126595464
H       -1.3142927230   -0.1960230940    3.7901483768
H       -0.1856236123    0.8973732706    2.9171037905
H        1.8041756617    0.2650396471    1.1824212007
H        1.8500759884   -1.1344906674    0.3304499129
24   
torsion grid (135,)
C        0.4385543023   -1.8492610633    2.7894732831
C       -1.6167922931   -2.3370877109    1.0478699138
C       -0.3542166984    1.1299077222   -1.5077172580
C       -0.5644111885   -0.3891149719   -1.2367150355
C       -0.2305297313    1.3616190837    0.0258212141
C        0.0658211444   -0.1529588957    0.1536857986
C       -1.3289515635    0.2387703209    2.7811139432
N        1.4702737796   -0.4220566685    0.1211699903
S       -0.6530160352   -1.1630498386    1.7359957793
H        0.9224617191   -1.1608812494    3.4754754692
H        0.9873487227   -2.6915804221    2.3856225438
H       -2.2402372364   -1.9956452300    0.2297198788
H       -2.0683580572   -2.9944103831    1.7851203257
H        0.5896906664    1.3219102563   -2.0197821865
H       -1.1670853329    1.6544959854   -2.0168241152
H       -1.6244839003   -0.6391258775   -1.1883367757
H       -0.0502228539   -1.1094204288   -1.8758790827
H        0.5493083188    2.0381535131    0.3851427301
H       -1.1909235804    1.6448199927    0.4603848231
H       -2.1759631369    0.6695569367    2.2463358652
H       -1.6567984622   -0.2134832484    3.7176019283
H       -0.5600219167    0.9954117262    2.9595863487
H        1.9108009987   -0.1989612846    1.0147623439
H        1.6347399093   -1.4149124042   -0.0465158148
24   
torsion grid (150,)
C        0.4874643405   -1.6541208814    2.8910890952
C       -1.3672775466   -2.4373428472    1.0503791187
C       -0.3484879317    1.1970811053   -1.4387030263
C       -0.7226805100   -0.2909049996   -1.1684682678
C       -0.0227444817    1.3705551263    0.0743419598
C        0.0701445896   -0.1722868711    0.1514878442
C       -1.5357453363    0.2044637396    2.6844679761
N        1.4140052044   -0.6328946340   -0.0263866543
S       -0.6106227775   -1.1248687149    1.7558057916
H        0.8896302052   -0.8861509754    3.5449863375
H        1.1204452149   -2.4647839790    2.5510747730
H       -1.9955748751   -2.1937756414    0.2008251305
H       -1.7666184173   -3.1303876822    1.7853151435
H        0.5484079466    1.2819562640   -2.0537713867
H       -1.1377435479    1.8355296810   -1.8443126020
H       -1.7974294576   -0.4051939825   -1.0098561712
H       -0.3723181543   -1.0534964982   -1.8660636184
H        0.8843329039    1.9173731983    0.3429883484
H       -0.8729151225    1.7799850859    0.6226627885
H       -2.3043167146    0.5990076600    2.0176883109
H       -1.9902258760   -0.2909926951    3.5429561248
H       -0.8562724455    0.9980398093    3.0063006655
H        1.9622509768   -0.4879755313    0.8233487956
H        1.4112793867   -1.6361198765   -0.2150445662
24   
torsion grid (165,)
C        0.4919073270   -1.4905363835    2.9831659283
C       -1.1780765072   -2.5152154933    1.0717470121
C       -0.3655234988    1.2625305399   -1.3481649274
C       -0.8360464549   -0.2001045765   -1.0953396751
C        0.1495001470    1.3353241909    0.1204086898
C        0.0888679782   -0.2103447488    0.1433273219
C       -1.6720321837    0.1653925294    2.5449437007
N        1.3596242058   -0.7986101132   -0.1542013861
S       -0.5721206491   -1.1132601683    1.7561942999
H        0.8222154783   -0.6446280209    3.5789195920
H        1.1987154466   -2.2689440867    2.7200789363
H       -1.7910573162   -2.3443925230    0.1919322777
H       -1.5638000594   -3.2050532803    1.8170714233
H        0.4559877756    1.3038348521   -2.0648230633
H       -1.1367299806    1.9838874808   -1.6306047925
H       -1.8970104591   -0.2441795606   -0.8345076079
H       -0.6157081487   -0.9533147327   -1.8539199812
H        1.1369954907    1.7704538943    0.2902613075
H       -0.5756700166    1.8111567078    0.7826642012
H       -2.3574938376    0.5363880165    1.7803664424
H       -2.2191530310   -0.3593797999    3.3286663111
H       -1.0803142401    0.9816363632    2.9666392206
H        2.0009274706   -0.6776707428    0.6313547134
H        1.2429826371   -1.8022744843   -0.3030680337
24   
torsion grid (180,)
C        0.4714720340   -1.3283599097    3.0594981537
C       -1.0309869483   -2.5908257435    1.1250003018
C       -0.3733481280    1.3323737663   -1.2466750696
C       -0.9152217496   -0.1110020079   -1.0389310392
C        0.2914363931    1.2734369643    0.1608589769
C        0.1021905541   -0.2612053267    0.1193711208
C       -1.7682959649    0.1242173857    2.4038834187
N        1.2968164161   -0.9394328104   -0.2799013004
S       -0.5431612344   -1.1167584340    1.7505641139
H        0.7236594588   -0.4094063708    3.5811550089
H        1.2517933472   -2.0603903313    2.8805365481
H       -1.6161914534   -2.4926859092    0.2135753552
H       -1.4195686158   -3.2578891472    1.8893925867
H        0.3705540550    1.3744363979   -2.0437888842
H       -1.1181171105    2.1174105003   -1.4010597616
H       -1.9551418652   -0.1195935094   -0.7016854572
H       -0.7972027600   -0.8238994387   -1.8574919433
H        1.3261827628    1.6132321598    0.2434436415
H       -0.3113456863    1.7695690758    0.9235960247
H       -2.3921472355    0.4667033218    1.5763979974
H       -2.3664511128   -0.4189545935    3.1359892795
H       -1.2547559810    0.9637697018    2.8776295917
H        2.0131255903   -0.8458634183    0.4414654680
H        1.1016928086   -1.9361864629   -0.3897122212
