27   
torsion grid (-165,)
C       -2.0510564381   -1.7795356709    1.9244520820
C       -1.2500504825   -2.8781791517    2.2620012213
C       -1.8604871925   -0.5454179267    2.5575583681
C       -0.2594031335   -2.7454473651    3.2302284721
C       -0.8699102312   -0.4070422450    3.5276552190
C        3.4271974242    1.0405395276    8.2766043763
C        3.3202852491   -0.8017365119    6.6897202164
C       -0.0590354451   -1.5073057663    3.8726628536
C        2.3163456777    1.1023298378    7.4919937153
C        1.0061910155   -1.4337291039    4.8917110258
C        1.2418673631    2.1434300630    7.5333924935
C        1.1895011672   -0.0691873842    5.5881498098
N        2.2735714248    0.0212949475    6.5921090339
O        1.7097600201   -2.3903414909    5.1942434554
S        4.4099617063   -0.3315657455    7.8944420675
H       -2.8240032959   -1.8842580349    1.1682901232
H       -1.4015297701   -3.8337731965    1.7690022511
H       -2.4834467640    0.3036934154    2.2930612673
H        0.3690355225   -3.5863915118    3.5046239284
H       -0.7442046272    0.5620314503    4.0017805989
H        3.7137121860    1.7322404452    9.0573816870
H        3.4246028014   -1.6855367485    6.0774950411
H        1.1153755315    2.6321253283    6.5627275964
H        0.2795666981    1.7162071608    7.8332369358
H        1.5081248765    2.9092520244    8.2628565899
H        0.2581407551    0.1864058499    6.0954136871
H        1.3778534981    0.6989156386    4.8332668890
27   
torsion grid (-150,)
C       -2.0439600905   -1.8306723865    1.9176777582
C       -1.3432838303   -2.9398022804    2.4096598064
C       -1.7730775154   -0.5483450658    2.4100505677
C       -0.3725433026   -2.7698476384    3.3919719800
C       -0.8020898370   -0.3722895744    3.3939256826
C        3.4043539936    0.9810736651    8.2900212193
C        3.3759911353   -0.6561660643    6.4922973579
C       -0.0922155729   -1.4828043408    3.8932180682
C        2.2825929077    1.0787349498    7.5242729298
C        0.9462525643   -1.3660823917    4.9334865974
C        1.1550829774    2.0470652354    7.7009301183
C        1.2237156782    0.0548810269    5.4797763143
N        2.2850681275    0.1128379396    6.5029595857
O        1.5712173440   -2.3212682178    5.3763534649
S        4.4552194706   -0.2791096562    7.7379531484
H       -2.8013890720   -1.9650086739    1.1505615627
H       -1.5573113730   -3.9324965969    2.0250570147
H       -2.3183609382    0.3084696988    2.0259460709
H        0.1787541869   -3.6177562297    3.7853027720
H       -0.6111739174    0.6332215416    3.7576755443
H        3.6626025265    1.5845227364    9.1497999540
H        3.5378285455   -1.4447542413    5.7737249941
H        0.9989390625    2.6526566173    6.8030973251
H        0.2188938487    1.5333674016    7.9419423052
H        1.3850853194    2.7227579149    8.5256354350
H        0.3099038133    0.4444341801    5.9269156629
H        1.5049777893    0.7204434593    4.6591715317
27   
torsion grid (-135,)
C        3.2448152057   -1.5271077562    0.1514663859
C        3.1111283927   -2.7000555441    0.9063788631
C        3.1173957209   -0.2741427430    0.7629501959
C        2.8509696094   -2.6238720769    2.2711363237
C        2.8537169605   -0.1919375475    2.1288671696
C        0.8103845660    0.4253247564    8.3606251461
C        2.5513582823   -0.8727540168    7.2697304163
C        2.7189626415   -1.3669862085    2.8951197901
C        0.9090840478    0.7139687965    7.0332166314
C        2.4459436426   -1.3452174490    4.3427634073
C        0.0815248558    1.6932105140    6.2611491731
C        2.2738276294    0.0480760840    5.0057851220
N        1.9171117907   -0.0541998790    6.4285831728
O        2.3568877314   -2.3497249489    5.0356417723
S        1.9609629645   -0.7731619992    8.8506269484
H        3.4487756625   -1.5889723007   -0.9137966157
H        3.2107870695   -3.6692646150    0.4269223986
H        3.2237244985    0.6322428956    0.1745926395
H        2.7451479193   -3.5218411194    2.8712556487
H        2.7621183716    0.7919412934    2.5800130957
H        0.1184009421    0.8543838416    9.0726867273
H        3.3566734257   -1.5261632544    6.9704024367
H        0.7014310821    2.4668187990    5.7976551654
H       -0.5024412325    1.1972717292    5.4793533691
H       -0.6190815187    2.1856331010    6.9366478828
H        1.4903650259    0.6068199095    4.4984112323
H        3.2036652939    0.6164404937    4.9145304694
27   
torsion grid (-120,)
C        3.1377369308   -1.5366505007    0.1811135899
C        2.9330513376   -2.6919292950    0.9474940740
C        3.1364356484   -0.2749755795    0.7879225943
C        2.7276216719   -2.5878199917    2.3196234971
C        2.9258223496   -0.1640242907    2.1610704333
C        0.7149180466    0.3196500787    8.2898083563
C        2.6670747838   -0.7599503691    7.3284659728
C        2.7201100891   -1.3212625312    2.9384750465
C        0.9002348044    0.6648885267    6.9852055563
C        2.5041914048   -1.2692539179    4.3939787008
C        0.0469208031    1.5785074191    6.1627156723
C        2.4702045987    0.1356310306    5.0631413037
N        2.0375796485    0.0325382128    6.4604964662
O        2.3738867783   -2.2566934791    5.1040508107
S        1.9338020583   -0.7766403014    8.8512731873
H        3.2992808032   -1.6194084780   -0.8899921052
H        2.9356858803   -3.6680163848    0.4716190063
H        3.2991085951    0.6166177024    0.1899462902
H        2.5701572641   -3.4712547661    2.9299493069
H        2.9340510010    0.8256001802    2.6089106180
H       -0.0770910530    0.6516838030    8.9473935028
H        3.5553400645   -1.3228600228    7.0814825336
H        0.6176379739    2.4348119217    5.7900165851
H       -0.3956899487    1.0539671586    5.3101112229
H       -0.7686672182    1.9621347109    6.7768890407
H        1.7909471886    0.8033971073    4.5394422303
H        3.4691325260    0.5792680579    5.0283465987
27   
torsion grid (-105,)
C        0.3577820186   -1.0523932493   -0.0097643257
C        0.5890620640   -2.2731786994    0.6386958628
C        0.5013817739    0.1553514062    0.6834429130
C        0.9640900493   -2.2890953458    1.9783907955
C        0.8704029248    0.1453495628    2.0274472052
C        1.0965609397   -0.4162841554    8.4670423749
C        2.8279624601   -0.7452760163    6.7971269723
C        1.1051951273   -1.0780340475    2.6861778499
C        0.7404627181    0.0892387756    7.2530144408
C        1.5124060745   -1.1498275203    4.0987790768
C       -0.5468012895    0.7606647981    6.8919760996
C        1.6410318345    0.1888147718    4.8867808557
N        1.7683254890   -0.0953249493    6.3176743587
O        1.7856358585   -2.1874739883    4.6856492640
S        2.6741032886   -1.1327740696    8.4346830932
H        0.0667017093   -1.0420229643   -1.0563806609
H        0.4774480400   -3.2068206894    0.0954857916
H        0.3254815577    1.0988086612    0.1755637105
H        1.1517090645   -3.2244722114    2.4957693878
H        0.9806669967    1.0955706408    2.5421162206
H        0.5106705056   -0.4081810384    9.3762436834
H        3.6907740653   -0.9927522208    6.1944082630
H       -0.3821238547    1.7881239616    6.5524259275
H       -1.0761198521    0.2124772218    6.1063899828
H       -1.1952873752    0.7975079110    7.7680745928
H        0.7829021701    0.8383782919    4.7341533054
H        2.5310983555    0.7252580543    4.5472361190
27   
torsion grid (-90,)
C        0.3442613559   -1.0337598477    0.0112011159
C        0.4095398201   -2.2467976494    0.7102579623
C        0.6334702636    0.1723129074    0.6603824256
C        0.7633790345   -2.2575991890    2.0558864220
C        0.9835870497    0.1696095540    2.0095433334
C        1.1240480193   -0.4583287100    8.4272192713
C        2.9516551177   -0.5526390053    6.8335661803
C        1.0511400663   -1.0467297367    2.7175579595
C        0.7604528222    0.0091775993    7.1995445099
C        1.4262579095   -1.1108158413    4.1397783719
C       -0.5837245813    0.5089231985    6.7754422050
C        1.7203175722    0.2295556197    4.8765810089
N        1.8428204869   -0.0325513114    6.3125259486
O        1.5424928057   -2.1466237301    4.7788868326
S        2.7766433652   -0.9741536361    8.4603090386
H        0.0689694263   -1.0283482406   -1.0397333301
H        0.1852808322   -3.1794670260    0.2012831848
H        0.5850716966    1.1093896071    0.1139910551
H        0.8229128953   -3.1875341257    2.6123732964
H        1.2074408153    1.1176928640    2.4904115765
H        0.5026020574   -0.5345840249    9.3093012185
H        3.8598921910   -0.6941054552    6.2627780174
H       -0.5416580464    1.5562875500    6.4601544855
H       -0.9852024080   -0.0890092063    5.9514995421
H       -1.2798516533    0.4383341619    7.6119100506
H        0.9360073607    0.9674523748    4.7192349828
H        2.6580708597    0.6567807696    4.5133647635
27   
torsion grid (-75,)
C        0.4164208390   -1.0186343728   -0.0066889927
C        0.2511062572   -2.1895669631    0.7455649107
C        0.8490783659    0.1625071901    0.6077804051
C        0.5172675080   -2.1820613136    2.1113070528
C        1.1170719839    0.1758061275    1.9755359235
C        1.2348352874   -0.4279290672    8.4326995051
C        3.0596676368   -0.2939063761    6.8399360203
C        0.9524115007   -0.9972054060    2.7383441754
C        0.8077139446   -0.0566002282    7.1919840681
C        1.2239826022   -1.0419942544    4.1848665021
C       -0.5928715091    0.2371945835    6.7602030422
C        1.7212433084    0.2641002269    4.8650229870
N        1.8857643630    0.0329889899    6.3044999495
O        1.0890026784   -2.0358964962    4.8843732658
S        2.9438162113   -0.6932999795    8.4778772608
H        0.2083523610   -1.0265874733   -1.0729367944
H       -0.0836529338   -3.1029400583    0.2628969536
H        0.9760195896    1.0668130099    0.0202908330
H        0.3971013197   -3.0790686844    2.7104023940
H        1.4523851628    1.1036733307    2.4305237277
H        0.6297186432   -0.5686887944    9.3181939906
H        3.9823752614   -0.3080141673    6.2746094136
H       -0.6891607968    1.2588986933    6.3798076101
H       -0.9145600960   -0.4617445238    5.9835461996
H       -1.2665770086    0.1319638739    7.6112530485
H        1.0156699776    1.0831609633    4.7185332453
H        2.6821808082    0.5738785767    4.4505250034
27   
torsion grid (-60,)
C        0.3435001153   -0.9746524238    0.0351633013
C        0.0938338089   -2.1229766513    0.7988513562
C        0.8909942864    0.1667970161    0.6326650873
C        0.3897165193   -2.1321415431    2.1584030004
C        1.1864958505    0.1641211405    1.9948121603
C        1.1454356056   -0.4547511933    8.4186873404
C        3.0622512736   -0.1231126652    6.9734578584
C        0.9370215982   -0.9860568543    2.7696348547
C        0.7761807741   -0.1632581720    7.1384760940
C        1.2355474982   -1.0523538520    4.2105825421
C       -0.6181015129   -0.0095261303    6.6185427723
C        1.8464565980    0.2099507886    4.8750464653
N        1.9051222379    0.0490735751    6.3351736021
O        1.0480531802   -2.0388410994    4.9085742112
S        2.8636633760   -0.5079713602    8.6063271000
H        0.1123902955   -0.9695401321   -1.0263496205
H       -0.3287207399   -3.0064404876    0.3295903588
H        1.0849881022    1.0533823128    0.0365394665
H        0.2078489552   -3.0136694078    2.7648171796
H        1.6126112431    1.0613176928    2.4347152764
H        0.4913855362   -0.6454877629    9.2588798346
H        4.0237515309   -0.0358392038    6.4847510025
H       -0.7301066969    0.9131208269    6.0416480361
H       -0.8925556589   -0.8558206203    5.9853417199
H       -1.3149442984    0.0346299706    7.4565294750
H        1.2543603545    1.0992161106    4.6489866359
H        2.8584771775    0.3806104221    4.5043520030
27   
torsion grid (-45,)
C        0.2522356361   -0.9187346934    0.0783638881
C       -0.0572680612   -2.0430367403    0.8558370052
C        0.9043957275    0.1788588528    0.6520653821
C        0.2836919032   -2.0715517896    2.2043057139
C        1.2422814566    0.1585298151    2.0042950170
C        1.0899980157   -0.3751474888    8.4103673594
C        3.0503840974    0.1073199219    7.0761856890
C        0.9335461912   -0.9677277795    2.7932680027
C        0.7804179287   -0.2130018644    7.0911538184
C        1.2780672925   -1.0625495323    4.2230105147
C       -0.5985870095   -0.2254445592    6.5039716198
C        1.9940225957    0.1454835028    4.8745669573
N        1.9317092112    0.0920127246    6.3484799644
O        1.0648139793   -2.0481217645    4.9153494695
S        2.7815667566   -0.1993295223    8.7143874348
H       -0.0131036853   -0.8986753104   -0.9749340631
H       -0.5601321680   -2.8935932286    0.4053512073
H        1.1466028904    1.0462494887    0.0454498697
H        0.0596605431   -2.9371891348    2.8193342931
H        1.7513166478    1.0218247049    2.4227293120
H        0.4016514742   -0.5854403429    9.2180218956
H        4.0289158838    0.2801204434    6.6481062603
H       -0.6862357581    0.4702228793    5.6656846583
H       -0.8585840486   -1.2240912252    6.1488032181
H       -1.3185534689    0.0779476999    7.2660918565
H        1.5468632383    1.0887597595    4.5538463457
H        3.0431163039    0.1519236007    4.5748508080
27   
torsion grid (-30,)
C        0.0699130260   -0.8259267427    0.1766171119
C       -0.1638447372   -1.9959435454    0.9125666052
C        0.7476191693    0.2502286418    0.7598800971
C        0.2779116915   -2.0894355871    2.2276462968
C        1.1893340099    0.1633128517    2.0796452490
C        0.9234026235   -0.1901242069    8.3638847107
C        2.9899015426    0.2438670817    7.1896956142
C        0.9572979824   -1.0084801659    2.8287665814
C        0.7547197276   -0.2306286999    7.0094556539
C        1.3955883093   -1.1865733937    4.2250357199
C       -0.5634352755   -0.3851373506    6.3105248475
C        2.2372961071   -0.0817424153    4.8985062376
N        1.9669419895    0.0455557905    6.3544783778
O        1.1810128414   -2.1984451101    4.8803897423
S        2.5549285694    0.1463804624    8.8171287353
H       -0.2743771935   -0.7541101326   -0.8512667457
H       -0.6864902077   -2.8307870154    0.4552566531
H        0.9299728892    1.1541766004    0.1866430458
H        0.1125513833   -2.9906350671    2.8090714000
H        1.7130577429    1.0151587690    2.5013573231
H        0.1579835390   -0.3290139699    9.1156854551
H        4.0009254853    0.4212173654    6.8471605284
H       -0.6063270262    0.2105050385    5.3953042975
H       -0.7494879771   -1.4275687718    6.0480492289
H       -1.3586328944   -0.0374193821    6.9724531218
H        2.0738891211    0.8995547034    4.4534250712
H        3.2888280688   -0.3452167241    4.7741779751
27   
torsion grid (-15,)
C        4.1101374386   -1.2312349733    1.0115051986
C        3.4844736105   -2.4724319360    1.1926359017
C        3.7899171760   -0.1527861130    1.8445657124
C        2.5439167579   -2.6364613007    2.2053825662
C        2.8455042457   -0.3119854717    2.8580231311
C        3.6509633924   -0.0828631803    7.4073145177
C        1.6759598720    1.0468214033    6.5981216312
C        2.2159841138   -1.5571635248    3.0490048309
C        2.9619664223   -0.8483574752    6.5083675467
C        1.2304934576   -1.7881375640    4.1258209218
C        3.3281965804   -2.2495063342    6.1257812373
C        0.8198705683   -0.6052470799    5.0341533741
N        1.8187788787   -0.1657778091    6.0583505581
O        0.6768999284   -2.8573062510    4.3243973219
S        2.9009625364    1.4459658137    7.6889153923
H        4.8428215011   -1.1035761890    0.2196173478
H        3.7313647366   -3.3054354182    0.5411347146
H        4.2717379098    0.8090775726    1.6965239044
H        2.0492972652   -3.5901610922    2.3609871500
H        2.6079129846    0.5414343737    3.4874353611
H        4.5587320480   -0.3572565176    7.9279052048
H        0.8527344467    1.7037479547    6.3476409681
H        2.4874175545   -2.9338572773    6.2549015731
H        3.6700770478   -2.3110540604    5.0908775459
H        4.1425761864   -2.5814801170    6.7714570952
H       -0.0698821373   -0.9346800736    5.5730964824
H        0.5742599744    0.2704206238    4.4323407370
27   
torsion grid (0,)
C       -0.2169247975   -0.3385040334    0.6572368596
C       -0.2905913749   -1.6945656335    1.0052144564
C        0.4877343703    0.5595940656    1.4673295705
C        0.3349961594   -2.1528615047    2.1604555126
C        1.1255296514    0.1028327339    2.6200175243
C        0.5237619714    0.7175861097    7.6861903184
C        2.8022304614    0.6467199187    6.8952561200
C        1.0524534752   -1.2576591258    2.9791687730
C        0.6571969845   -0.1099162904    6.6054204461
C        1.6688288513   -1.7892211193    4.2101405861
C       -0.4677489962   -0.8926127921    6.0008525672
C        2.6157598812   -0.8868289268    5.0334026054
N        1.9932021798   -0.1278113727    6.1674766540
O        1.5071580722   -2.9312322048    4.6148429291
S        2.0145095458    1.4502061925    8.1520252395
H       -0.7058510511    0.0171608018   -0.2453582999
H       -0.8354160687   -2.3884424536    0.3720006149
H        0.5430918412    1.6093320823    1.1950539591
H        0.2847414529   -3.1984262240    2.4475406253
H        1.6653537845    0.8189596237    3.2335641307
H       -0.3870449254    0.9231054231    8.2323355459
H        3.8613271355    0.7372557101    6.6895657632
H       -0.6293126980   -0.6306483090    4.9533867932
H       -0.2890167214   -1.9672607714    6.0657684917
H       -1.3806769234   -0.6594679484    6.5507722280
H        3.1282507751   -0.1561264226    4.4086168800
H        3.3491696799   -1.5613347987    5.4771250232
27   
torsion grid (15,)
C        3.8198180836   -1.5750019246    0.4776472761
C        3.1621485056   -2.7224405814    0.9430375289
C        3.7690597385   -0.3855580502    1.2130394361
C        2.4574718383   -2.6820903806    2.1412044523
C        3.0540864563   -0.3365585653    2.4092744373
C        2.9696979569   -0.4840338649    8.1980396371
C        1.2320547106    0.7743293367    7.0934599229
C        2.3921905944   -1.4861439305    2.8867680414
C        2.8436801639   -0.8424581045    6.8848830902
C        1.6505379243   -1.5238211842    4.1599685843
C        3.7287238170   -1.8330805616    6.1907651159
C        1.2839967816   -0.2102258344    4.8804014430
N        1.8323865286   -0.0861725099    6.2669321764
O        1.2470266313   -2.5560250370    4.6807355870
S        1.8515111610    0.7451492820    8.6620165127
H        4.3705857986   -1.6080382896   -0.4581909101
H        3.2016915593   -3.6425874235    0.3676996434
H        4.2831890060    0.5001495239    0.8521580923
H        1.9445891273   -3.5613190642    2.5177594190
H        3.0386781793    0.5973695203    2.9627590180
H        3.6788508613   -0.8834946863    8.9105738898
H        0.4134489706    1.4094489664    6.7799601611
H        3.2120572203   -2.7785878569    6.0191176667
H        4.0827152194   -1.4555575628    5.2286317778
H        4.6014544472   -2.0169937249    6.8193683352
H        0.1968317720   -0.2183909182    4.9697553111
H        1.5846084789    0.6834645238    4.3361804588
27   
torsion grid (30,)
C        3.5586427273   -1.6606203706    0.2599945032
C        3.0917798102   -2.7898262442    0.9471181693
C        3.4954177413   -0.3966527253    0.8566431333
C        2.5641917709   -2.6560453881    2.2266156451
C        2.9709493680   -0.2571523183    2.1411317108
C        2.5211016466   -0.7769772352    8.4029304089
C        1.0803087302    0.6864942714    7.1305215646
C        2.5007374733   -1.3872414320    2.8410437530
C        2.7497483716   -0.8825998138    7.0608822578
C        1.9258298199   -1.3281756798    4.1972760939
C        3.8460422379   -1.6932365198    6.4355729209
C        1.7308127907    0.0448514442    4.8750450608
N        1.9129998199   -0.0061097573    6.3493015909
O        1.5311949206   -2.3114736159    4.8111153612
S        1.2720484559    0.3556147424    8.7739921222
H        3.9694939474   -1.7658727698   -0.7401907093
H        3.1385065534   -3.7687499125    0.4793858041
H        3.8549201703    0.4768742983    0.3212175171
H        2.1910036591   -3.5184531974    2.7693299092
H        2.9349202002    0.7373076353    2.5742003839
H        3.0412819253   -1.3044473181    9.1913088989
H        0.3390868516    1.3698217786    6.7373181017
H        3.4835753740   -2.6760951328    6.1309520755
H        4.2637452079   -1.1957086266    5.5568115765
H        4.6513484150   -1.8201679548    7.1613602855
H        0.7087722053    0.3699508402    4.6741785985
H        2.4141868180    0.8024634123    4.4919498899
27   
torsion grid (45,)
C        3.3629926555   -1.6435677854    0.1465668305
C        2.9812990678   -2.7740036706    0.8819181335
C        3.3334972736   -0.3741925242    0.7356127519
C        2.5706823548   -2.6373560817    2.2040834129
C        2.9294418556   -0.2323334699    2.0621480951
C        2.2800801971   -0.8486747213    8.4298187399
C        0.9667709960    0.6026861143    7.0069964194
C        2.5451677635   -1.3641230357    2.8089303401
C        2.7307817233   -0.8553525338    7.1416966336
C        2.0906944795   -1.2833289559    4.2084828950
C        3.9435666557   -1.5782770590    6.6385788968
C        2.0576570748    0.1121948598    4.8777495981
N        1.9675455674    0.0150170558    6.3479753939
O        1.7057465263   -2.2441390696    4.8602564460
S        0.9081594977    0.1800350536    8.6403753726
H        3.6817370743   -1.7516348784   -0.8863693707
H        3.0025801731   -3.7561738213    0.4191560400
H        3.6256383688    0.4996371709    0.1610739912
H        2.2633189129   -3.5003135639    2.7859933032
H        2.9120306456    0.7643352289    2.4932143515
H        2.6935091862   -1.3974338749    9.2654535293
H        0.2573402631    1.2661596992    6.5303925351
H        3.6737510249   -2.5612620919    6.2487490797
H        4.4450467719   -1.0201294853    5.8439973067
H        4.6542436582   -1.7048312412    7.4572039640
H        1.1916071177    0.6688202221    4.5163425182
H        2.9530623624    0.6878102398    4.6338928969
27   
torsion grid (60,)
C        3.2418839236   -1.6344457135    0.1066456689
C        2.8042623874   -2.7606686400    0.8167833853
C        3.3232665492   -0.3876945997    0.7380541116
C        2.4486452806   -2.6428656123    2.1568080112
C        2.9711217942   -0.2645552225    2.0810301059
C        2.2163653471   -0.9478750433    8.4544931253
C        0.8607998289    0.3634087192    6.9325383961
C        2.5315333172   -1.3925087082    2.8021229707
C        2.7754978080   -0.8654406388    7.2131773601
C        2.1381698615   -1.3239986814    4.2200183894
C        4.0809410004   -1.4503842822    6.7753928793
C        2.2228767563    0.0575421664    4.9216480724
N        1.9824619125   -0.0796374466    6.3654978975
O        1.7368527633   -2.2784287827    4.8707878717
S        0.7111537654   -0.1019379125    8.5496061578
H        3.5186258690   -1.7280625314   -0.9397269698
H        2.7407468753   -3.7248582705    0.3212286364
H        3.6606070468    0.4824966327    0.1830783267
H        2.1029147357   -3.5026621167    2.7217166432
H        3.0408694447    0.7138245558    2.5479070766
H        2.6133336219   -1.4685545421    9.3155395201
H        0.1226300964    0.9489398874    6.4003804073
H        3.9219795399   -2.3034380628    6.1124354515
H        4.6964385795   -0.7102455189    6.2558031390
H        4.6368859587   -1.7916356297    7.6495977632
H        1.4762408705    0.7380610054    4.5091926196
H        3.2048718811    0.5127046729    4.7766575708
27   
torsion grid (75,)
C        3.1638746523   -1.6354097710    0.0593546440
C        2.6429715754   -2.7352233517    0.7545769933
C        3.3594974323   -0.4140757405    0.7150264266
C        2.3172877784   -2.6178159363    2.1023241402
C        3.0358035871   -0.2895285661    2.0650185933
C        2.1535571235   -0.8795664122    8.4634186997
C        0.7846651521    0.2220926585    6.7907481237
C        2.5124317702   -1.3918068624    2.7693590444
C        2.7999226829   -0.7586158938    7.2687777311
C        2.1505929958   -1.3167921307    4.1946668795
C        4.1770752204   -1.2276161170    6.9258714625
C        2.3574578442    0.0420963294    4.9208159021
N        1.9928856536   -0.0996373627    6.3345937371
O        1.6954164418   -2.2481112185    4.8432503918
S        0.5560289075   -0.2176834441    8.4062570072
H        3.4168750635   -1.7298244048   -0.9929601604
H        2.4923552742   -3.6800622708    0.2409420976
H        3.7626777455    0.4358365009    0.1727134065
H        1.9108564232   -3.4581529538    2.6561291019
H        3.1956243270    0.6685415402    2.5517607677
H        2.5307467083   -1.3362313200    9.3685489206
H        0.0328901526    0.7045121038    6.1797481998
H        4.1460052186   -1.9750480429    6.1285448672
H        4.8157334397   -0.3974176472    6.6084466060
H        4.6352015081   -1.6861045755    7.8028772631
H        1.7308115174    0.8172153053    4.4761404779
H        3.3944483973    0.3746030174    4.8561558038
27   
torsion grid (90,)
C        3.2138317605   -1.6808233361    0.0803426907
C        2.4800050298   -2.6989539313    0.7043544685
C        3.5434713744   -0.5145112543    0.7808524624
C        2.0739515323   -2.5547191643    2.0273688899
C        3.1438922354   -0.3663594328    2.1079553014
C        2.2329929006   -0.9537629555    8.4646372472
C        0.7427639005   -0.0533546651    6.7740196604
C        2.4059420549   -1.3857849119    2.7415981339
C        2.8737345717   -0.7241943343    7.2836443962
C        1.9492799795   -1.2770875972    4.1369830731
C        4.3078181600   -0.9946151199    6.9571297917
C        2.3389291519    0.0064790422    4.9282883035
N        1.9943817233   -0.1803587514    6.3397788373
O        1.2688914550   -2.1149948143    4.7114514967
S        0.5557958089   -0.5311680874    8.3838395357
H        3.5282849937   -1.7958838080   -0.9531600911
H        2.2266593369   -3.6006588596    0.1548277845
H        4.1091343557    0.2730430213    0.2921544174
H        1.5017911919   -3.3305914733    2.5259904588
H        3.4075036964    0.5489059166    2.6304653611
H        2.6590815254   -1.3575839189    9.3731898591
H       -0.0628799044    0.3095919548    6.1495834581
H        4.3965037489   -1.7013460755    6.1263499022
H        4.8402350079   -0.0752841277    6.6935273995
H        4.8033725425   -1.4318862886    7.8245979149
H        1.7873416548    0.8659964191    4.5401550692
H        3.4011169835    0.2313844877    4.8521702792
27   
torsion grid (105,)
C        0.5900338595   -1.0875532434    0.1589303603
C        0.1712855192   -2.1518331793    0.9690378541
C        1.1340268703    0.0663846510    0.7353491506
C        0.2943475418   -2.0654974100    2.3521304693
C        1.2665118338    0.1572980013    2.1198380680
C        3.0576458204   -0.4656943514    8.3013564399
C        0.8663697624   -0.0803027621    7.3307579253
C        0.8467578162   -0.9091226452    2.9398400529
C        3.1351746706   -0.0910400604    6.9937489980
C        0.9465066064   -0.8642189182    4.4076192525
C        4.3716093537    0.0661568702    6.1661744691
C        1.5821246467    0.4036059921    5.0539138333
N        1.8569881356    0.1458344532    6.4688986525
O        0.5371133629   -1.7422690417    5.1540914955
S        1.4187167354   -0.5440365557    8.8588652927
H        0.4913323891   -1.1566667419   -0.9207754488
H       -0.2513563208   -3.0442905098    0.5172889457
H        1.4531258246    0.8905725384    0.1046081817
H       -0.0288442936   -2.8781000247    2.9948115869
H        1.6865900227    1.0655032228    2.5425164666
H        3.8794972876   -0.7026830309    8.9634473533
H       -0.1776387429    0.0261916235    7.0706276837
H        4.3682056768   -0.6165467160    5.3107531451
H        4.4800668570    1.0907804806    5.7967537675
H        5.2470757830   -0.1648397471    6.7741384807
H        0.8855781169    1.2420876483    4.9705734645
H        2.5090698026    0.6912238252    4.5642802549
27   
torsion grid (120,)
C        0.5046425703   -1.0450651750    0.1134936681
C       -0.0013583473   -2.0812407025    0.9098929673
C        1.1577844932    0.0448451153    0.7012734170
C        0.1436406363   -2.0299389194    2.2926971290
C        1.3107880039    0.0990253938    2.0854291105
C        3.0529688670   -0.3553307377    8.3666106917
C        0.8901123522   -0.2513466037    7.2657556482
C        0.8039593498   -0.9387089075    2.8929785995
C        3.1654421220   -0.0389062153    7.0464849371
C        0.9246238025   -0.9313098458    4.3603596018
C        4.4266812568    0.2159380374    6.2825050638
C        1.6806974356    0.2636636944    5.0111889327
N        1.9013748731    0.0206988127    6.4404827538
O        0.4503391449   -1.7894340259    5.0917301920
S        1.4019783733   -0.5795813209    8.8428345849
H        0.3893183278   -1.0862904711   -0.9659596082
H       -0.5076186147   -2.9238823820    0.4485369631
H        1.5449388106    0.8470083376    0.0802797864
H       -0.2441984078   -2.8217236105    2.9254873742
H        1.8170288133    0.9573796504    2.5177494320
H        3.8564057722   -0.4709730410    9.0814904873
H       -0.1446789078   -0.2526852531    6.9558553746
H        4.5604257675   -0.5113264968    5.4755439616
H        4.4404253984    1.2226610086    5.8533104010
H        5.2809496205    0.1273752945    6.9547689785
H        1.0910648121    1.1765504358    4.8892404307
H        2.6447677937    0.4240278417    4.5353581589
27   
torsion grid (135,)
C        0.4186971380   -0.9751347651    0.0671666360
C       -0.1539555385   -1.9891149611    0.8465637429
C        1.1736155769    0.0390472327    0.6685395165
C        0.0260043548   -1.9911422951    2.2262884662
C        1.3595676233    0.0400397345    2.0496257727
C        3.0394011419   -0.2083871818    8.4143670596
C        0.9390917349   -0.4099972197    7.2075181629
C        0.7859877708   -0.9754905780    2.8406552678
C        3.1920657095    0.0135228638    7.0792772681
C        0.9417698703   -1.0262045650    4.3048137907
C        4.4634692227    0.3414942745    6.3610825588
C        1.8072230951    0.0841032017    4.9597400949
N        1.9656342965   -0.1160643295    6.4077741997
O        0.4285165612   -1.8791397704    5.0162388936
S        1.3946386300   -0.5598923544    8.8285510296
H        0.2764937187   -0.9746581023   -1.0098557199
H       -0.7384042058   -2.7733110301    0.3747075581
H        1.6137056181    0.8236838929    0.0605322117
H       -0.4105078716   -2.7678617954    2.8458518280
H        1.9470450711    0.8392746032    2.4923842955
H        3.8103236690   -0.1857947338    9.1727459089
H       -0.0732061597   -0.5362091098    6.8548198050
H        4.7269228220   -0.4350041848    5.6359492873
H        4.3945554983    1.3002453173    5.8379873198
H        5.2781590306    0.4116784775    7.0828727539
H        1.3471426541    1.0609463348    4.7865536469
H        2.7969803766    0.0968935188    4.5083668202
27   
torsion grid (150,)
C        4.9593638709   -3.5112766395    1.9937323761
C        3.8250122538   -4.1920259005    2.4551948322
C        5.2722151260   -2.2404434402    2.4910125135
C        3.0028225108   -3.6047896113    3.4119056150
C        4.4524846833   -1.6478750782    3.4495203199
C        1.1445891754    1.4444692890    8.2457429635
C        0.4951893097   -0.0352428348    6.4282419099
C        3.3089430047   -2.3255541734    3.9180360740
C        2.2153976568    1.0309802559    7.5132435075
C        2.4003977981   -1.7560751424    4.9301881704
C        3.6503665009    1.3961493637    7.7317321424
C        2.7690074178   -0.3599724046    5.4869095964
N        1.8135724611    0.1666891644    6.4800564334
O        1.4017050479   -2.3314799101    5.3431792894
S       -0.3404516780    0.7854812137    7.6475880427
H        5.6001991843   -3.9707752795    1.2464736813
H        3.5868569091   -5.1777931094    2.0669710149
H        6.1522127816   -1.7164636744    2.1304033161
H        2.1210331626   -4.1180242113    3.7815086586
H        4.7177084719   -0.6610329195    3.8177609942
H        1.1560131578    2.1002788889    9.1058793978
H        0.0207633082   -0.6691843079    5.6951701648
H        4.2522720994    0.5202359867    7.9942799708
H        4.0865745278    1.8652350315    6.8446526589
H        3.7208118978    2.1068474552    8.5560846322
H        2.8401562860    0.3599989806    4.6670860565
H        3.7460523331   -0.4185646130    5.9651041651
27   
torsion grid (165,)
C       -2.0816855123   -1.8099786828    1.9834245605
C       -1.0158145636   -2.7183841201    2.0199472953
C       -2.1206172943   -0.7318299706    2.8756732948
C        0.0094693348   -2.5513916272    2.9459270691
C       -1.0958717588   -0.5605071522    3.8042683467
C        3.3763082818    1.0681864850    8.3270794235
C        2.9703844048   -1.0066910913    7.1207851320
C       -0.0199063916   -1.4700192190    3.8490496457
C        2.3604075841    1.1867008294    7.4285904309
C        1.0985526618   -1.3496938686    4.8051115078
C        1.5380999567    2.4072792905    7.1564225005
C        1.0439823853   -0.1443317064    5.7663638845
N        2.1539168988   -0.0220734679    6.7381381863
O        2.0333302783   -2.1410646669    4.8449775126
S        4.0579980108   -0.5223771935    8.3217897665
H       -2.8817753114   -1.9414201174    1.2603866975
H       -0.9887010666   -3.5531914412    1.3260250540
H       -2.9482435258   -0.0295985533    2.8448766579
H        0.8424859772   -3.2454798074    2.9867635622
H       -1.1531105253    0.2846601394    4.4840061744
H        3.7563095731    1.8362993853    8.9872017836
H        2.9445042542   -1.9900083630    6.6741777633
H        1.6856100609    2.7722103248    6.1349133756
H        0.4710063178    2.2161957274    7.3042116255
H        1.8345819862    3.2032130329    7.8405768202
H        0.1120707619   -0.1817113490    6.3370090335
H        1.0322593401    0.7710280013    5.1732215218
27   
torsion grid (180,)
C       -2.0731876925   -1.7747054485    1.9578045506
C       -1.1362083080   -2.8017890217    2.1294279891
C       -1.9940383024   -0.6104547712    2.7313559040
C       -0.1211979765   -2.6676054122    3.0718926893
C       -0.9796856907   -0.4707030010    3.6763873034
C        3.3950389258    1.0679761206    8.3067052238
C        3.1784544132   -0.9228235762    6.9235628437
C       -0.0328446561   -1.4996004131    3.8553615829
C        2.3349658783    1.1470519368    7.4562021141
C        1.0685455457   -1.4225790914    4.8364682883
C        1.3677168015    2.2813563801    7.3241609922
C        1.1391806590   -0.1311442056    5.6744823520
N        2.2325448926   -0.0156485689    6.6688830013
O        1.8866671190   -2.3228512650    4.9876991191
S        4.2514213958   -0.4252280270    8.1322874945
H       -2.8651430510   -1.8806747739    1.2217555738
H       -1.2008669371   -3.7033059492    1.5275650258
H       -2.7221761058    0.1835388385    2.5956416878
H        0.6125060246   -3.4536022260    3.2175171694
H       -0.9437312951    0.4434575563    4.2617279279
H        3.7120949936    1.8131583625    9.0238813311
H        3.2261707125   -1.8655779806    6.3958931614
H        1.3719321250    2.7005619429    6.3133681457
H        0.3460984313    1.9694820710    7.5626902616
H        1.6454871591    3.0763065916    8.0171402451
H        0.1986603629   -0.0166186718    6.2182552205
H        1.2327283058    0.7195661499    4.9956009349
