15   
torsion grid (-165,)
C        0.5428858918   -0.3738287107   -1.1434863932
C       -0.7644424002    0.4017449229    1.2034823157
C        0.6302640800    1.0840127508   -0.8054531038
C        0.3747680682    1.2633208437    0.6975281973
N       -0.2041021055   -1.2291919000   -0.5569719017
N       -0.9517162313   -0.7840864819    0.4856397811
N        1.3106666503   -0.8950469361   -2.3001437208
O        1.0352143728   -2.0037034410   -2.7487125853
O       -1.4516385165    0.6444601123    2.1804347707
O        2.1833692857   -0.1344379781   -2.7444692573
H        1.5959896117    1.4926475854   -1.1006432039
H       -0.1334535141    1.6125747026   -1.3917572062
H        0.1572680077    2.3011226007    0.9532966381
H        1.2623066727    0.9671516319    1.2704443815
H       -1.5650141922   -1.4819941083    0.8950437987
15   
torsion grid (-150,)
C        0.5389143177   -0.3753063797   -1.1441611800
C       -0.7511440947    0.3975454719    1.2096533826
C        0.6017548482    1.0874948762   -0.8229312559
C        0.3673195193    1.2748560622    0.6820790113
N       -0.1935711989   -1.2364095054   -0.5502450535
N       -0.9448001649   -0.7872927576    0.4925651255
N        1.3249507157   -0.8986344070   -2.2863768686
O        0.9023761626   -1.8749801300   -2.8986438194
O       -1.4194003299    0.6327880962    2.2016517649
O        2.3610147195   -0.2719636813   -2.5505666351
H        1.5538889829    1.5129606076   -1.1383952705
H       -0.1882371801    1.5890425390   -1.3984278874
H        0.1352486621    2.3106813022    0.9331880836
H        1.2681359024    0.9980934542    1.2435448738
H       -1.5340851808   -1.4941299541    0.9212982398
15   
torsion grid (-135,)
C        0.5399097665   -0.3815216577   -1.1394213117
C       -0.7425443950    0.3938553054    1.2148816945
C        0.5820709455    1.0859931733   -0.8375569458
C        0.3557047793    1.2862761061    0.6672238873
N       -0.1744458656   -1.2487051737   -0.5356255239
N       -0.9218821185   -0.8009597849    0.5152150769
N        1.3305494461   -0.8987432874   -2.2797486885
O        0.8026068328   -1.6970510714   -3.0488324465
O       -1.4051923431    0.6328310002    2.2103758861
O        2.4745297099   -0.4364905809   -2.3825411285
H        1.5274291354    1.5214085191   -1.1622213729
H       -0.2201134317    1.5668291671   -1.4138186707
H        0.1054606681    2.3201613191    0.9085767939
H        1.2663347269    1.0327894522    1.2235669638
H       -1.4980521757   -1.5119268921    0.9541582971
15   
torsion grid (-120,)
C        0.5414274949   -0.3891622721   -1.1328869826
C       -0.7341953433    0.3905028705    1.2201807129
C        0.5624744105    1.0828992287   -0.8524652197
C        0.3435871605    1.2967183854    0.6518723760
N       -0.1535771038   -1.2615393444   -0.5181905543
N       -0.9042460630   -0.8113876483    0.5350057092
N        1.3374376297   -0.8993911979   -2.2726910710
O        0.7505301221   -1.4846037779   -3.1789345450
O       -1.3880810622    0.6327103192    2.2213267645
O        2.5443106341   -0.6341088685   -2.2341680769
H        1.4998871878    1.5299088678   -1.1870690853
H       -0.2507219552    1.5433207685   -1.4296599788
H        0.0752817123    2.3284744791    0.8827597374
H        1.2633807282    1.0670421036    1.2031292973
H       -1.4651298718   -1.5266383195    0.9860234273
15   
torsion grid (-105,)
C        0.5424858793   -0.3971159878   -1.1255819313
C       -0.7286202416    0.3893283349    1.2242765476
C        0.5433293520    1.0789563893   -0.8670154157
C        0.3301683701    1.3068163169    0.6364219701
N       -0.1260916758   -1.2756461640   -0.4946357718
N       -0.8850823927   -0.8215924785    0.5561402203
N        1.3436695557   -0.8991870142   -2.2668905496
O        0.7425768455   -1.2451924136   -3.2812006728
O       -1.3781146242    0.6373266055    2.2274192032
O        2.5678649647   -0.8614722871   -2.1170908016
H        1.4734625556    1.5362221520   -1.2109117440
H       -0.2774598420    1.5215658353   -1.4468190673
H        0.0457281498    2.3366702441    0.8562233481
H        1.2574717935    1.0992396665    1.1835609397
H       -1.4290230090   -1.5411736049    1.0203362363
15   
torsion grid (-90,)
C        0.5446888430   -0.4009536701   -1.1213764850
C       -0.7239519415    0.3873006574    1.2278686547
C        0.5218124217    1.0778544767   -0.8803202855
C        0.3148000327    1.3168211162    0.6224645502
N       -0.0899232030   -1.2872562341   -0.4684219955
N       -0.8580846736   -0.8350649575    0.5790400924
N        1.3513315517   -0.8964683234   -2.2628241030
O        0.7803677884   -0.9885094007   -3.3486519892
O       -1.3735662221    0.6390397498    2.2303087533
O        2.5423356734   -1.1154635527   -2.0397869723
H        1.4431446235    1.5469221565   -1.2341271143
H       -0.3062348393    1.5045930428   -1.4611856607
H        0.0141878101    2.3438965789    0.8333212460
H        1.2492353249    1.1310084035    1.1653623178
H       -1.3877775090   -1.5589744492    1.0525615022
15   
torsion grid (-75,)
C        0.5527827347   -0.4023766456   -1.1169957509
C       -0.7219530275    0.3883665904    1.2291693694
C        0.5023275428    1.0784438767   -0.8916889195
C        0.2981327396    1.3288861346    0.6097470168
N       -0.0463359393   -1.2956997547   -0.4391208207
N       -0.8266245760   -0.8474122641    0.5999032332
N        1.3597273016   -0.8955690937   -2.2575814723
O        0.8621493022   -0.7355799052   -3.3740581702
O       -1.3787910406    0.6415498161    2.2263227959
O        2.4597747356   -1.3847196374   -2.0094503727
H        1.4136449935    1.5604921969   -1.2549120627
H       -0.3328794328    1.4878046321   -1.4740599423
H       -0.0188003821    2.3528979588    0.8112983702
H        1.2376470521    1.1643474291    1.1508573580
H       -1.3384363227   -1.5766857396    1.0848018790
15   
torsion grid (-60,)
C        0.5629802467   -0.4029266499   -1.1126759091
C       -0.7171587826    0.3919015850    1.2309756880
C        0.4781721036    1.0790371426   -0.9035525651
C        0.2857828043    1.3401552187    0.5974019924
N       -0.0080426246   -1.3004096575   -0.4125773454
N       -0.7965112620   -0.8558133948    0.6174329747
N        1.3716093347   -0.8971131820   -2.2477026611
O        1.0012426270   -0.5078331459   -3.3603013017
O       -1.3801885745    0.6434352925    2.2238510645
O        2.3273226271   -1.6316589133   -2.0126728188
H        1.3719617243    1.5787000838   -1.2851131884
H       -0.3725242042    1.4640653773   -1.4795430072
H       -0.0414960812    2.3617869107    0.7941318916
H        1.2319328621    1.1903036593    1.1314635815
H       -1.2927171197   -1.5888847323    1.1131141153
15   
torsion grid (-45,)
C        0.5765520901   -0.4044058122   -1.1064266080
C       -0.7111518328    0.3935940057    1.2347382620
C        0.4601390639    1.0773166705   -0.9126677433
C        0.2701152628    1.3526473129    0.5860526382
N        0.0226545810   -1.3040797934   -0.3912196239
N       -0.7636540772   -0.8653734198    0.6364095692
N        1.3786924155   -0.9013306928   -2.2417090997
O        1.1746143208   -0.3168209926   -3.3137925407
O       -1.3777647792    0.6396741657    2.2259607227
O        2.1564176360   -1.8334928547   -2.0590849280
H        1.3393249819    1.5912123327   -1.3073148579
H       -0.4009438380    1.4392930431   -1.4879608354
H       -0.0758844384    2.3699904641    0.7727007157
H        1.2211262548    1.2276921999    1.1181900111
H       -1.2478719604   -1.6011710347    1.1403568292
15   
torsion grid (-30,)
C        0.5934767978   -0.4076235339   -1.0971523895
C       -0.7056800120    0.3954941672    1.2384780789
C        0.4464046878    1.0731225063   -0.9193594430
C        0.2533617868    1.3653091942    0.5756588749
N        0.0486099386   -1.3073409968   -0.3716917410
N       -0.7333365280   -0.8740477096    0.6555544889
N        1.3828126449   -0.9071681177   -2.2398304928
O        1.3690246837   -0.1714398609   -3.2373591568
O       -1.3752788495    0.6357078062    2.2284580218
O        1.9672787153   -1.9822013047   -2.1433706201
H        1.3108129093    1.6014558256   -1.3250722260
H       -0.4242022583    1.4093212366   -1.4963300889
H       -0.1127820286    2.3779916954    0.7490251229
H        1.2073638199    1.2679096880    1.1085605243
H       -1.2055006267   -1.6117450014    1.1686635575
15   
torsion grid (-15,)
C        0.6063439082   -0.4094455132   -1.0907032234
C       -0.7001807939    0.3961655255    1.2450973201
C        0.4340751348    1.0701256318   -0.9256958507
C        0.2330709456    1.3779063877    0.5654347491
N        0.0708852414   -1.3089658098   -0.3563638311
N       -0.7001099620   -0.8817064288    0.6771245492
N        1.3822324705   -0.9136586815   -2.2437106689
O        1.5838762080   -0.0806768556   -3.1401346897
O       -1.3709121749    0.6307354015    2.2354240089
O        1.7585516743   -2.0819634299   -2.2518854235
H        1.2889057751    1.6093687723   -1.3350192726
H       -0.4410075954    1.3839250641   -1.5089605999
H       -0.1568020905    2.3839960214    0.7251680515
H        1.1897075856    1.3117778962    1.0984623905
H       -1.1562706460   -1.6228383874    1.1999950015
15   
torsion grid (0,)
C        0.6097083105   -0.4098632708   -1.0889386963
C       -0.6917627581    0.3960505758    1.2506849425
C        0.4134373938    1.0680808329   -0.9347489451
C        0.2164925106    1.3884120327    0.5538687380
N        0.0898587600   -1.3104621122   -0.3447317784
N       -0.6755229119   -0.8871335424    0.6929879144
N        1.3870440664   -0.9164398299   -2.2437323982
O        1.8229380433   -0.0432343240   -3.0090566349
O       -1.3561574801    0.6254713819    2.2462887856
O        1.5486367068   -2.1258953904   -2.3745419042
H        1.2543366185    1.6182839095   -1.3559791178
H       -0.4736383426    1.3572785602   -1.5135517934
H       -0.1913459154    2.3886893591    0.7051113639
H        1.1780179708    1.3470801911    1.0806549180
H       -1.1096772917   -1.6315727791    1.2299171169
15   
torsion grid (15,)
C        0.6064726362   -0.4106907669   -1.0913942264
C       -0.6823178318    0.3955418529    1.2561577849
C        0.3889659135    1.0653985568   -0.9461077477
C        0.2007710816    1.3977376526    0.5407347777
N        0.1072148687   -1.3123915382   -0.3354901053
N       -0.6488764608   -0.8923560199    0.7115310537
N        1.3944631923   -0.9162922125   -2.2415083623
O        2.0608217691   -0.0620997029   -2.8447650824
O       -1.3397562093    0.6234439348    2.2568812281
O        1.3477481552   -2.1109309877   -2.5185928347
H        1.2175561139    1.6232128286   -1.3808333464
H       -0.5108457241    1.3315352724   -1.5170165579
H       -0.2243673394    2.3916812253    0.6859469034
H        1.1680992786    1.3798495833    1.0580598183
H       -1.0635837627   -1.6388940841    1.2606292080
15   
torsion grid (30,)
C        0.5983492469   -0.4117049484   -1.0943784352
C       -0.6657633658    0.3940843825    1.2622915052
C        0.3560633746    1.0615454098   -0.9621854011
C        0.1907248459    1.4046953719    0.5245025573
N        0.1174467917   -1.3161929552   -0.3320542042
N       -0.6402863384   -0.8933592408    0.7173020532
N        1.4079879748   -0.9118164828   -2.2305098364
O        2.2784528449   -0.1330171752   -2.6451002277
O       -1.2995751011    0.6201223714    2.2787908966
O        1.1835021392   -2.0357491091   -2.6693340422
H        1.1661728735    1.6294347713   -1.4188226407
H       -0.5634552229    1.2993034583   -1.5142430031
H       -0.2478580964    2.3929057449    0.6691228165
H        1.1672424995    1.4058383276    1.0241828175
H       -1.0266387854   -1.6413443319    1.2846676553
15   
torsion grid (45,)
C        0.6003110427   -0.4148815241   -1.0902844287
C       -0.6538193459    0.3923564952    1.2674332211
C        0.3342663627    1.0555237961   -0.9751482473
C        0.1755914834    1.4121853419    0.5092529927
N        0.1383847143   -1.3210456411   -0.3210613725
N       -0.6173258953   -0.8978177478    0.7347569271
N        1.4141036686   -0.9072602278   -2.2253400171
O        2.4401236843   -0.2548520852   -2.4596680485
O       -1.2770351796    0.6212871212    2.2903858711
O        1.0396611840   -1.9072179982   -2.8306546084
H        1.1332067198    1.6318418560   -1.4425896468
H       -0.5939665569    1.2694753895   -1.5221916013
H       -0.2825316212    2.3924548855    0.6472400789
H        1.1566639092    1.4389128467    0.9988319375
H       -0.9852684893   -1.6462169137    1.3132694534
15   
torsion grid (60,)
C        0.6060256818   -0.4196564827   -1.0826722479
C       -0.6463574453    0.3920088173    1.2718287837
C        0.3155311234    1.0473050131   -0.9871274548
C        0.1585537884    1.4185418110    0.4942614483
N        0.1687760681   -1.3255976390   -0.3022945307
N       -0.5883353221   -0.9019717770    0.7578834544
N        1.4216327494   -0.9042116921   -2.2201577228
O        2.5597198225   -0.4270206744   -2.2915055577
O       -1.2674751256    0.6274108488    2.2953570163
O        0.9264218691   -1.7243839294   -2.9880244990
H        1.1038405650    1.6323408791   -1.4638676907
H       -0.6177272511    1.2390269729   -1.5335720376
H       -0.3180830538    2.3911132975    0.6233668924
H        1.1423345370    1.4699931199    0.9761213764
H       -0.9424923260   -1.6501529708    1.3446352809
15   
torsion grid (75,)
C        0.6144483274   -0.4259051335   -1.0718773846
C       -0.6405365049    0.3905245404    1.2761328116
C        0.2983516542    1.0368169665   -0.9977619184
C        0.1391495751    1.4233393149    0.4798184537
N        0.2084116267   -1.3300605126   -0.2756923252
N       -0.5609305375   -0.9074915101    0.7812253279
N        1.4299431481   -0.9012829478   -2.2151031505
O        2.6341897021   -0.6400072630   -2.1599443571
O       -1.2604854532    0.6318750243    2.2994734384
O        0.8490878678   -1.4850616809   -3.1270251515
H        1.0764438502    1.6306790794   -1.4824117154
H       -0.6371337603    1.2070635158   -1.5469450674
H       -0.3576221124    2.3872464828    0.5976593970
H        1.1236511112    1.5019112966    0.9561883568
H       -0.8946028136   -1.6549015784    1.3804957957
15   
torsion grid (90,)
C        0.6200076418   -0.4323412503   -1.0644395316
C       -0.6379375345    0.3917038083    1.2788136061
C        0.2770745758    1.0254777145   -1.0090188905
C        0.1217106423    1.4264643100    0.4653725813
N        0.2517227642   -1.3312447137   -0.2452770672
N       -0.5309761861   -0.9111146053    0.8049889918
N        1.4396991042   -0.9009913005   -2.2079573116
O        2.6613232984   -0.8826869778   -2.0582981520
O       -1.2629628615    0.6386485132    2.2978989195
O        0.8309505870   -1.2143685802   -3.2306119424
H        1.0418186410    1.6275715033   -1.5059616934
H       -0.6627696615    1.1757064531   -1.5559070154
H       -0.3879970345    2.3845488096    0.5748870393
H        1.1080292788    1.5243035550    0.9344155532
H       -0.8473275746   -1.6569316450    1.4153274241
15   
torsion grid (105,)
C        0.6243572446   -0.4371372588   -1.0596584714
C       -0.6340930001    0.3940800220    1.2806649204
C        0.2534316860    1.0146680753   -1.0201304607
C        0.1058410633    1.4297198476    0.4509898570
N        0.2902777561   -1.3298789357   -0.2177682557
N       -0.5020356451   -0.9137153493    0.8251632383
N        1.4481293277   -0.9010180635   -2.1995999411
O        2.6368311935   -1.1338004361   -1.9904137229
O       -1.2625255258    0.6428474893    2.2969217782
O        0.8745061475   -0.9394632702   -3.2905680108
H        1.0023133161    1.6239498137   -1.5325155230
H       -0.6924921880    1.1445518346   -1.5608891584
H       -0.4148099943    2.3825455961    0.5543957810
H        1.0946315889    1.5446879855    0.9110965577
H       -0.8019972895   -1.6572917563    1.4465439225
15   
torsion grid (120,)
C        0.6336043378   -0.4361289151   -1.0570032842
C       -0.6302156869    0.3968985932    1.2824171945
C        0.2331211337    1.0082697766   -1.0282965903
C        0.0888734002    1.4354850634    0.4396150061
N        0.3248528932   -1.3244617236   -0.1977941595
N       -0.4691648115   -0.9144823085    0.8411509731
N        1.4546156445   -0.9024022415   -2.1941347859
O        2.5624979527   -1.3797138318   -1.9624753138
O       -1.2630899068    0.6412604230    2.2964212498
O        0.9641141488   -0.6971313796   -3.3097238299
H        0.9641247342    1.6263121219   -1.5551030379
H       -0.7189990923    1.1168269148   -1.5624041013
H       -0.4455839068    2.3812288902    0.5371984786
H        1.0782078737    1.5698949385    0.8936018633
H       -0.7545930336   -1.6571107272    1.4707628484
15   
torsion grid (135,)
C        0.6444279941   -0.4327398455   -1.0537516092
C       -0.6239196383    0.3997863481    1.2848965685
C        0.2145766932    1.0030819008   -1.0353454783
C        0.0711147154    1.4425363278    0.4289156093
N        0.3528010668   -1.3184871031   -0.1826602047
N       -0.4359611376   -0.9145775995    0.8564733474
N        1.4604248038   -0.9031509598   -2.1901170694
O        2.4437018215   -1.6042222667   -1.9670291714
O       -1.2579350332    0.6377640851    2.2991070387
O        1.0957085210   -0.4862698776   -3.2972636486
H        0.9279498631    1.6294609956   -1.5750380109
H       -0.7427053293    1.0891053836   -1.5641778120
H       -0.4796963568    2.3794108034    0.5208111373
H        1.0602876415    1.5994878792    0.8762989796
H       -0.7084099443   -1.6564404771    1.4931128345
15   
torsion grid (150,)
C        0.6646870645   -0.4276455112   -1.0465287259
C       -0.6195131155    0.4032812166    1.2882649717
C        0.2040874101    0.9984145266   -1.0387372617
C        0.0510684317    1.4507620982    0.4207128126
N        0.3815334473   -1.3114778401   -0.1682412651
N       -0.4031083922   -0.9123334772    0.8703860966
N        1.4664290960   -0.9051208114   -2.1901644081
O        2.2910565184   -1.7974363761   -2.0140740014
O       -1.2558445790    0.6332381121    2.3023567233
O        1.2444217645   -0.3182791427   -3.2590439899
H        0.9000468947    1.6353881352   -1.5870790332
H       -0.7559949965    1.0576697816   -1.5665916562
H       -0.5201061706    2.3763715590    0.5023871733
H        1.0361724059    1.6353442322    0.8668659244
H       -0.6625700984   -1.6534309084    1.5137191505
15   
torsion grid (165,)
C        0.6799274272   -0.4232808471   -1.0413169991
C       -0.6145992044    0.4058671571    1.2923341869
C        0.1913962520    0.9935556242   -1.0426976250
C        0.0299311170    1.4577411424    0.4121921618
N        0.4079679030   -1.3040493282   -0.1550272904
N       -0.3693618131   -0.9099826340    0.8868496296
N        1.4737525056   -0.9068294944   -2.1908874438
O        2.1077657908   -1.9526990932   -2.0868206987
O       -1.2525270911    0.6293022512    2.3065420444
O        1.4303369267   -0.1824722875   -3.1966006728
H        0.8716500155    1.6399664736   -1.5978992951
H       -0.7709385247    1.0270888498   -1.5694847720
H       -0.5606591611    2.3718337107    0.4853847535
H        1.0116114579    1.6688842550    0.8543527518
H       -0.6138879204   -1.6501801855    1.5373117802
15   
torsion grid (180,)
C        0.5464919127   -0.3739857029   -1.1412325211
C       -0.7737145931    0.4054571600    1.1972667862
C        0.6538456526    1.0796382610   -0.7920068183
C        0.3865611207    1.2492459231    0.7104305153
N       -0.2197544590   -1.2217430140   -0.5672195398
N       -0.9719748099   -0.7724938499    0.4689669470
N        1.3019884191   -0.8917117921   -2.3053075650
O        1.2175449160   -2.0811087179   -2.5955029736
O       -1.4691187590    0.6534724430    2.1669260319
O        1.9694739959   -0.0450087903   -2.9183939880
H        1.6289482677    1.4762821985   -1.0735177976
H       -0.0912585955    1.6289473766   -1.3824085379
H        0.1868568998    2.2885929000    0.9742533211
H        1.2623238295    0.9302019068    1.2892753674
H       -1.6058481167   -1.4610407077    0.8627032835
