25   
torsion grid (-105,)
C        0.9791330637    0.6482877461    2.7174419050
C       -0.8630151421   -0.7715598578    0.4833348008
C        1.4946254292    0.0855683307   -0.6928685712
C        1.4248003215   -1.1885939400    1.6236764894
C       -1.8128708946   -0.4893227690   -0.7815099240
C        0.5595053993   -0.5033935064   -1.7079066474
C        0.6759203852   -0.2120929931    0.6508479848
N        1.3916360184   -0.5450938348    2.9356376819
N        0.9080449107    1.6805849581    3.6203119282
O       -1.3526635456    0.8585159663   -3.0791668667
O       -0.5748818180    1.8908583331   -0.8940746005
O        0.6140555898    1.0007910910    1.4469160289
S       -0.8486321267    0.6970670209   -1.7024935032
H       -1.3694834062   -0.3975203286    1.3738762174
H       -0.8042249193   -1.8569170020    0.5892706808
H        2.4660191439   -0.4139797613   -0.6644840824
H        1.6342188213    1.1572452386   -0.8154346230
H        0.9571943450   -2.1772593110    1.6648772163
H        2.4648437725   -1.3365819613    1.3044723084
H       -1.9657768349   -1.3558645227   -1.4227354774
H       -2.7726636054   -0.0661635400   -0.4778540172
H        0.9521637112   -0.4860142737   -2.7306152901
H        0.2063084565   -1.5047029212   -1.4877092735
H        0.2018042483    2.3781472677    3.4189798118
H        0.9499438816    1.3796983838    4.5858366814
25   
torsion grid (-90,)
C        0.9244509176    0.6814117312    2.6846136929
C       -0.7304277758   -0.9140653968    0.4731687139
C        1.5078052438   -0.0399539854   -0.6771520292
C        1.4884970755   -1.1834986884    1.6960333819
C       -1.7328149658   -0.3325768649   -0.5920579154
C        0.5775119610   -0.4209305516   -1.8127570421
C        0.7146340003   -0.3021952507    0.6620060726
N        1.3861560974   -0.4792955171    2.9727186214
N        0.7801578445    1.7515917184    3.5322451984
O       -1.5030132901    0.8400994670   -2.9946021946
O       -0.3957404252    1.9984853259   -1.0202323209
O        0.5795902198    0.9547018092    1.3891993108
S       -0.8090342617    0.7631950055   -1.6954498053
H       -1.1983979480   -0.8764538990    1.4600051690
H       -0.5863359010   -1.9750148084    0.2480465470
H        2.4169382274   -0.6477100274   -0.6993975861
H        1.7820329709    1.0123065269   -0.7293770838
H        1.0643818508   -2.1909038490    1.7697527152
H        2.5425360783   -1.2947143917    1.4087379358
H       -2.1620061589   -1.1067566896   -1.2282696417
H       -2.5348089533    0.2499966127   -0.1334477979
H        1.0314357539   -0.2662852587   -2.7970291309
H        0.1723964895   -1.4299266252   -1.7748960954
H        0.0543310105    2.4095402718    3.2754088698
H        0.8075671337    1.5019911208    4.5127013692
25   
torsion grid (-75,)
C        0.8580491474    0.7011181423    2.6354340796
C       -0.6576935059   -0.9892239651    0.4384288333
C        1.5117154136   -0.1052333285   -0.6887444022
C        1.5398189145   -1.1576783596    1.7079302328
C       -1.6747713379   -0.2165727746   -0.4424703237
C        0.6214930114   -0.3849866499   -1.8952892556
C        0.7385474391   -0.3513554749    0.6424068886
N        1.3603983808   -0.4317732974    2.9646533469
N        0.6470120321    1.7838630297    3.4510604235
O       -1.6241910561    0.6005192738   -3.0012382250
O       -0.3880336682    2.0223698875   -1.2826035098
O        0.5385422664    0.9277540100    1.3229164467
S       -0.8222572042    0.7047659566   -1.7688382493
H       -1.0987753426   -1.1343146989    1.4295639272
H       -0.5065802856   -1.9909256855    0.0234370629
H        2.3901454243   -0.7565788986   -0.7315487636
H        1.8512279131    0.9304783149   -0.7068433794
H        1.1745460525   -2.1876067416    1.7903368832
H        2.6059715246   -1.2080654388    1.4489879958
H       -2.3816031442   -0.8861827268   -0.9343250310
H       -2.2186468745    0.5363071700    0.1315881528
H        1.1126786218   -0.1274833992   -2.8383294807
H        0.2532305945   -1.4092050299   -1.9685066114
H       -0.0957994059    2.4079756959    3.1611507044
H        0.6660490447    1.5632733503    4.4385831368
25   
torsion grid (-60,)
C        0.8505086261    0.6069841153    2.7102401312
C       -0.6593255466   -0.9406015067    0.4228944923
C        1.5222522208   -0.0683767284   -0.6322563807
C        1.5193768359   -1.2219571714    1.7132437382
C       -1.6035088051   -0.0077812651   -0.3494879927
C        0.7061679693   -0.2907081099   -1.9061282389
C        0.7437722968   -0.3634286689    0.6738858258
N        1.3228827222   -0.5495514067    2.9976379731
N        0.6470855560    1.6568403745    3.5694837586
O       -1.6437662101    0.3366473171   -3.0221744334
O       -0.4479058203    2.0895297041   -1.5932944890
O        0.5624132017    0.8969657814    1.4012497925
S       -0.8180921351    0.6878178499   -1.8530052394
H       -1.1183345631   -1.1635313982    1.3920611647
H       -0.5585286599   -1.8981789230   -0.0987725669
H        2.4103476798   -0.7061410130   -0.6830581973
H        1.8646808414    0.9672780390   -0.5958437709
H        1.1436900151   -2.2508651728    1.7428330260
H        2.5898431769   -1.2695521847    1.4723399670
H       -2.5017650433   -0.5280003790   -0.6866190678
H       -1.8777886297    0.8612200460    0.2503882461
H        1.2379388524    0.0627397211   -2.7937958317
H        0.4141658359   -1.3301612002   -2.0708837429
H       -0.0851552391    2.3033988858    3.3028805914
H        0.6538242997    1.3924773996    4.5465105435
25   
torsion grid (-45,)
C        1.0207500097    0.5131311026    2.7716570363
C       -1.0474080631   -0.8402906534    0.3812733446
C        1.0684492973    0.3718724639   -0.4223948749
C        1.1861252331   -1.3001685525    1.5518369418
C       -1.8484905429    0.0319313890   -0.5850659128
C        0.6999298008   -0.3081006038   -1.7395667114
C        0.3220202134   -0.2677946468    0.7709884999
N        1.6702544188   -0.5898102034    2.7358317497
N        1.1461074554    1.5205418831    3.6970809891
O       -1.5417339857   -0.7845612021   -3.1327914309
O       -0.9450061502    1.6371033928   -2.5520987709
O        0.1259458590    0.7883351564    1.7669383444
S       -0.9868287715    0.2081029017   -2.1952966072
H       -1.6287872247   -0.9848844474    1.2969328772
H       -0.9062473221   -1.8354175109   -0.0541759987
H        2.1479830792    0.3195185123   -0.2550323530
H        0.8073660093    1.4322284667   -0.4803760863
H        0.5931746381   -2.1739732104    1.8539906732
H        2.0184404133   -1.6674384764    0.9409439055
H       -2.8174692304   -0.4095376785   -0.8276030000
H       -1.9902974674    1.0431437626   -0.1985589896
H        1.3203051688    0.0353357818   -2.5715628507
H        0.7256187720   -1.3989330229   -1.7052005304
H        0.3389924930    2.1253270766    3.7857894892
H        1.5463078072    1.2163191057    4.5759309867
25   
torsion grid (-30,)
C        1.0881469718    0.4406348196    2.7723135600
C       -1.0994992094   -0.7847949344    0.4024318075
C        0.9946213398    0.4434021042   -0.4017548470
C        1.1784713250   -1.3217084198    1.4735994829
C       -1.8281541145    0.0846583205   -0.6207140097
C        0.7488345859   -0.2674267151   -1.7313219029
C        0.2893106799   -0.2530541562    0.7778420697
N        1.7304238098   -0.6609817337    2.6571814426
N        1.2662525743    1.4081359226    3.7318500803
O       -1.4474472329   -1.2922119815   -2.8879583337
O       -1.1134976559    1.2479233468   -2.9349283940
O        0.1433248641    0.7591393014    1.8277455526
S       -0.9947672181   -0.0467545899   -2.2419128702
H       -1.6957984907   -0.8647455781    1.3158514123
H       -1.0020943804   -1.8006452499    0.0037178615
H        2.0692753828    0.4981235470   -0.2026871222
H        0.6383660544    1.4759734777   -0.4692106800
H        0.5910690525   -2.2001577455    1.7724182866
H        1.9746163856   -1.6737659065    0.8078171647
H       -2.8474663232   -0.2612039033   -0.8082110048
H       -1.8460777382    1.1406447220   -0.3448833201
H        1.3312453467    0.1688751750   -2.5460016652
H        0.9382394924   -1.3423375943   -1.6886554345
H        0.4639683648    2.0048066546    3.8919005586
H        1.7100398454    1.0636764364    4.5743619339
25   
torsion grid (-15,)
C        1.1042935761    0.3883497457    2.7973055255
C       -1.1803154229   -0.6998903507    0.4386435205
C        0.9341800947    0.5192631976   -0.3480877369
C        1.1160945189   -1.3295034647    1.4377059906
C       -1.8353279424    0.1116906346   -0.6778987988
C        0.7876302553   -0.1526744464   -1.7135995993
C        0.2314447445   -0.2195055488    0.8046625171
N        1.7223392732   -0.7190122644    2.6217822866
N        1.3311499625    1.3189477869    3.7832775961
O       -1.2653683615   -1.6382058223   -2.6102752805
O       -1.2337278347    0.8588687159   -3.1832789110
O        0.1339143364    0.7551549039    1.8971464771
S       -0.9685265373   -0.2416894142   -2.2404182568
H       -1.7979745349   -0.6679766150    1.3404162577
H       -1.1369582883   -1.7474207437    0.1229573042
H        1.9993839217    0.6134306791   -0.1127633561
H        0.5397241096    1.5388314328   -0.3980243910
H        0.5178843681   -2.2029942095    1.7284014215
H        1.8813689263   -1.6791304246    0.7355232602
H       -2.8664758292   -0.1991327130   -0.8643196592
H       -1.8080637218    1.1904546276   -0.5134293681
H        1.2921072150    0.4159568679   -2.4972578399
H        1.1548072822   -1.1815449873   -1.7179822556
H        0.5441382889    1.9214339225    3.9907182960
H        1.7937195691    0.9361228894    4.5987632794
25   
torsion grid (0,)
C        1.1241297944    0.3281648340    2.8321285769
C       -1.2972170031   -0.5564098661    0.5074402992
C        0.8551956810    0.6255718988   -0.2736033297
C        1.0236032856   -1.3216618575    1.3948444834
C       -1.8537968885    0.0984434292   -0.7568063919
C        0.8204200227   -0.0333255222   -1.6556521441
C        0.1522479402   -0.1546662007    0.8503777447
N        1.7021116754   -0.7846235074    2.5758650349
N        1.4208081028    1.2027511873    3.8510804688
O       -0.9786650224   -1.9422014080   -2.2214077084
O       -1.2441202243    0.3373023750   -3.3596784620
O        0.1256701206    0.7638304944    1.9956207044
S       -0.8817739980   -0.4703667682   -2.1825291751
H       -1.9317600802   -0.3040992250    1.3611783827
H       -1.3535827899   -1.6398735772    0.3748690674
H        1.9025602140    0.7742787809    0.0097551861
H        0.4072091506    1.6221854744   -0.3300087626
H        0.4086156877   -2.1864894474    1.6740628543
H        1.7449600749   -1.6669924699    0.6464775472
H       -2.8744063699   -0.2298453381   -0.9704984527
H       -1.8269890991    1.1899677793   -0.7477715906
H        1.2100818474    0.6375003152   -2.4233575333
H        1.3729311757   -0.9749747045   -1.6819427475
H        0.6601627737    1.8141078039    4.1215131963
H        1.9030797496    0.7657139895    4.6270201835
25   
torsion grid (15,)
C        0.8152540148    0.6686761555    2.4188112449
C       -0.9440654478   -1.2328703137    0.4562060813
C        1.2041415845   -0.6037776930   -0.7164618049
C        1.2789972624   -1.3638523416    1.7303321510
C       -1.8912741288   -0.2947999251   -0.2828533633
C        0.5361306365    0.1588879130   -1.8759345568
C        0.4633275683   -0.6475257997    0.6135926550
N        1.3053580134   -0.4297951219    2.8564357023
N        0.7558970061    1.8717317308    3.0772062439
O       -1.7231785429   -0.8356160818   -2.8689216704
O       -1.7020106025    1.6222771597   -2.1479793538
O        0.3414012970    0.7173640785    1.1305403953
S       -1.3000020733    0.2231329051   -1.9278457881
H       -1.3688546749   -1.4271531387    1.4470633148
H       -0.8713833230   -2.1971047793   -0.0582781010
H        1.3687025312   -1.6450270806   -1.0152554833
H        2.1916982022   -0.1616743908   -0.5540540115
H        0.8125864854   -2.3116703437    2.0208027397
H        2.3008440712   -1.5904215700    1.3993131574
H       -2.8547389961   -0.7642907780   -0.4950497471
H       -2.0465773371    0.6267892075    0.2790558024
H        0.8231598906    1.2116947478   -1.8510598517
H        0.8040769560   -0.2626237176   -2.8460384867
H       -0.0018378907    2.4823904157    2.7967333579
H        0.8887806006    1.7916778870    4.0777622056
25   
torsion grid (30,)
C        0.8933942427    0.6432338074    2.4877329465
C       -0.9704608229   -1.2032182285    0.5542402396
C        1.1660713589   -0.5975086735   -0.6614178392
C        1.2778619867   -1.3968720893    1.7716621241
C       -1.8936041384   -0.2776290454   -0.2292175699
C        0.5035316587    0.2307955340   -1.7720280714
C        0.4511927887   -0.6487615502    0.6834877304
N        1.3779843894   -0.4677769696    2.8976051760
N        0.8873818423    1.8425427921    3.1574971909
O       -1.5632205543   -1.1549091594   -2.7004724777
O       -1.8599821764    1.3660170944   -2.3497771249
O        0.3666650320    0.7120856258    1.2211342479
S       -1.3102965016    0.0720032222   -1.9151473395
H       -1.3946823488   -1.3391545669    1.5551405263
H       -0.9257064223   -2.1904121640    0.0827013068
H        1.2859778718   -1.6325707518   -1.0009102141
H        2.1732731725   -0.1959087749   -0.5101497553
H        0.7863189542   -2.3268826116    2.0778985054
H        2.2780049680   -1.6614129577    1.4052570081
H       -2.8819510822   -0.7165192259   -0.3886583407
H       -2.0023210034    0.6887604098    0.2661501439
H        0.6779279300    1.2974234298   -1.6134851766
H        0.8708363919   -0.0494421222   -2.7614469642
H        0.1257134655    2.4659688615    2.9186642277
H        1.0589872860    1.7478963840    4.1510153920
25   
torsion grid (45,)
C        0.9106560086    0.6157889785    2.4648100904
C       -1.0017730905   -1.1238078536    0.4937131301
C        1.1567264386   -0.5421847201   -0.7191462838
C        1.2405174377   -1.4150408385    1.6964001599
C       -1.8867315340   -0.2033234949   -0.3425748481
C        0.5000405390    0.3669922805   -1.7627328831
C        0.4384527097   -0.6170943899    0.6261781030
N        1.3615548975   -0.5187456146    2.8472306489
N        0.9344167851    1.7970893061    3.1668829742
O       -1.3194765673   -1.3435839654   -2.6689183550
O       -1.9065859931    1.1504512859   -2.6604192663
O        0.3933396275    0.7333169034    1.1979877669
S       -1.2566803883   -0.0112475558   -2.0330793759
H       -1.4392015513   -1.2117945983    1.4942851206
H       -0.9851202064   -2.1262624026    0.0540978286
H        1.2328506971   -1.5595250664   -1.1181657450
H        2.1773270351   -0.1817314613   -0.5539411486
H        0.7238604008   -2.3393747128    1.9768642881
H        2.2346350643   -1.6959832847    1.3259729954
H       -2.8949101876   -0.6052580769   -0.4740385384
H       -1.9517471987    0.8000630146    0.0834609830
H        0.5400720489    1.4168573240   -1.4625709800
H        0.9602743098    0.2569897265   -2.7477598644
H        0.1853644427    2.4425956385    2.9473589413
H        1.1006008293    1.6688516441    4.1576549203
25   
torsion grid (60,)
C        0.9957368930    0.5397191353    2.3602005824
C       -1.0624472107   -1.0580937121    0.3279391029
C        1.1475509344   -0.4500651650   -0.8296578904
C        1.1659340532   -1.4863921356    1.5257939880
C       -1.9061590688   -0.1459221029   -0.5697714214
C        0.4720522399    0.5403459616   -1.7798277307
C        0.3938800551   -0.6050467288    0.4979714350
N        1.4403389648   -0.6183212979    2.6713055158
N        1.1173478011    1.6979044943    3.0924310850
O       -1.0277311007   -1.4583017793   -2.7237760768
O       -1.8748562947    0.9370433297   -3.0319163583
O        0.3749334471    0.7125811897    1.1484690092
S       -1.1727320701   -0.0758571775   -2.2272253186
H       -1.5260877343   -1.1063440372    1.3190691432
H       -1.0662970648   -2.0712354023   -0.0862686756
H        1.2270650756   -1.4282602727   -1.3132006473
H        2.1618757167   -0.0996204252   -0.6125526895
H        0.5727046612   -2.3545093662    1.8352091950
H        2.1020251074   -1.8677695641    1.1001479119
H       -2.9197843000   -0.5313557276   -0.7082912770
H       -1.9566726637    0.8815117854   -0.2029603840
H        0.3365406774    1.5286606257   -1.3363999032
H        1.0135267884    0.6396405830   -2.7247819422
H        0.3770167331    2.3738989960    2.9477888343
H        1.3438348906    1.5299648358    4.0652457041
25   
torsion grid (75,)
C        1.0098234740    0.5566639294    2.2570670239
C       -1.3165775599   -0.8467732277    0.2742508786
C        0.9139572806   -0.1826080433   -0.9278240572
C        0.9540497041   -1.4352171802    1.3305411706
C       -2.2024872736    0.0295480754   -0.6456003778
C        0.1099545417    0.8476512650   -1.7100026548
C        0.1736460886   -0.4537510483    0.4062361577
N        1.4566575622   -0.6269599677    2.4425242419
N        1.2783751458    1.6717236688    3.0183871756
O       -1.0941657593   -1.3783712285   -2.6456597254
O       -2.1361048130    0.8853448541   -3.2037375899
O        0.2191091897    0.8077515467    1.1642902013
S       -1.4033375871    0.0137669949   -2.2698615816
H       -1.7415286147   -0.8450977733    1.2831415137
H       -1.3617290974   -1.8743872744   -0.0978601384
H        1.0161954396   -1.1050610471   -1.5026497507
H        1.9112067738    0.2005154107   -0.6908933115
H        0.3078866310   -2.2379999540    1.7060003712
H        1.7815595795   -1.9104744190    0.7917953880
H       -3.2017879158   -0.3985054343   -0.7573110841
H       -2.2783613318    1.0714963526   -0.3314554114
H       -0.1834580712    1.7173048664   -1.1229956777
H        0.6221167156    1.1845246413   -2.6167108321
H        0.5531901297    2.3787800790    3.0055913161
H        1.6196458048    1.4448385057    3.9447423745
25   
torsion grid (90,)
C        1.1578389384    0.5059380391    2.2611217066
C       -1.3174678529   -0.7599815716    0.2618495683
C        1.0437457176   -0.1033536646   -0.8570681216
C        0.9114143725   -1.4757941289    1.3496923108
C       -2.1926770795   -0.0326167687   -0.8266261707
C        0.1319836704    0.8548690410   -1.5939627498
C        0.2070547816   -0.4367214165    0.4342493387
N        1.5789434305   -0.6944154039    2.3941040773
N        1.5325980481    1.6037017695    3.0032100398
O       -0.7151200179   -1.6109419510   -2.4237119868
O       -1.7802989154    0.4548531074   -3.4657547698
O        0.2762224606    0.7923824783    1.2492817341
S       -1.1695796027   -0.2141302249   -2.3036728038
H       -1.7691116646   -0.6019834912    1.2453541967
H       -1.3907337607   -1.8273120771    0.0404689542
H        1.2579355278   -0.9973014372   -1.4409058723
H        1.9793908923    0.3649426502   -0.5407529201
H        0.1951567083   -2.1733875965    1.8027349549
H        1.6323485873   -2.0725384642    0.7819677893
H       -3.1432879625   -0.5547808682   -0.9578412958
H       -2.3643567773    1.0302607159   -0.6624913334
H       -0.3258986538    1.6113845918   -0.9631880124
H        0.6110389834    1.3452300399   -2.4481719492
H        0.8438036651    2.3454246635    3.0383325632
H        1.9232549853    1.3579756117    3.9049135236
25   
torsion grid (105,)
C        1.2586157534    0.4107456683    2.2735903018
C       -1.4169899146   -0.5194012969    0.2970389638
C        1.0496088794    0.1096060944   -0.8586713910
C        0.8354054852   -1.4735594506    1.2327647164
C       -2.3036834615   -0.0602171492   -0.9638970517
C       -0.0142542825    0.9053592834   -1.5556353387
C        0.1807289350   -0.3216197798    0.4249647870
N        1.6143422956   -0.8173470853    2.2870686306
N        1.7382587229    1.4236982306    3.0746829629
O       -0.5474130545   -1.7677851973   -2.0333881137
O       -1.5617079012   -0.0343270007   -3.5889397049
O        0.3387682753    0.8242613624    1.3420235700
S       -1.1029954356   -0.4186699965   -2.2421154869
H       -1.8256101215   -0.0641600539    1.2018155702
H       -1.5867136835   -1.5934214333    0.3670122093
H        1.3971090867   -0.7460546063   -1.4322693827
H        1.8938018019    0.7042767641   -0.5054544982
H        0.0894367220   -2.1408311222    1.6827732646
H        1.4718981993   -2.0862601562    0.5885334364
H       -3.1918767494   -0.6909122295   -1.0392793508
H       -2.5681189072    0.9937578126   -1.0164338287
H       -0.5691736839    1.5704808286   -0.9038461276
H        0.3337345194    1.4673712470   -2.4298260844
H        1.0971102283    2.1967918927    3.2057315666
H        2.1572171739    1.0844319096    3.9323621202
