19   
torsion grid (-90,)
C        1.6605183735   -1.2140989265   -0.1106453213
C        2.7394847650   -1.8432956387    1.9664033555
C        0.6597451039   -0.5699046290    0.6036792082
C        1.7384629853   -1.1962709373    2.6865253365
C        2.7255119426   -1.8569369663    0.5581574605
C        0.6902163208   -0.5544343370    2.0096167274
C        4.2111625595   -2.3647123356   -1.4848309819
C        3.8288501113   -2.4979061404   -0.1730794502
C       -0.3956992746    0.1557424734    2.7289306923
O       -1.3266491025    0.7359663609    2.1962722385
O       -0.2655645745    0.1037971479    4.0856375152
H        1.6507822991   -1.1994846626   -1.1968822969
H        3.5507427309   -2.3369679459    2.4962779233
H       -0.1543435830   -0.0632207598    0.0946444633
H        1.7640850658   -1.1846991294    3.7708147355
H        5.3052650768   -2.4296917988   -1.5533679023
H        3.8880127565   -2.9383438723   -2.3559539977
H        4.6937506508   -2.5323039318    0.4986290518
H       -1.0285988934    0.5965456905    4.4427418868
19   
torsion grid (-75,)
C        1.6976764878   -1.1993341373   -0.1064752678
C        2.7570650941   -1.8272730894    1.9798321128
C        0.6822557369   -0.5676174025    0.5985749795
C        1.7428027917   -1.1910815559    2.6917524495
C        2.7588980083   -1.8370815079    0.5719427302
C        0.6967386562   -0.5571173023    2.0047018466
C        4.2094317931   -2.3752985564   -1.4657667020
C        3.8722095545   -2.4751644794   -0.1475457579
C       -0.4044515020    0.1398916619    2.7136285339
O       -1.3348784955    0.7127252566    2.1721247557
O       -0.2894929411    0.0848039555    4.0715589516
H        1.6980760170   -1.1797780557   -1.1925970265
H        3.5657625749   -2.3172857147    2.5169741010
H       -0.1305498254   -0.0664721188    0.0820402437
H        1.7561132337   -1.1831176339    3.7763248533
H        5.2806796070   -2.5214126355   -1.6361037249
H        3.6969691058   -2.8536969693   -2.3022436130
H        4.7417924824   -2.5449025252    0.5135490335
H       -1.0613630656    0.5689924715    4.4212981454
19   
torsion grid (-60,)
C        1.7260833338   -1.1933192109   -0.1044445754
C        2.7754726343   -1.8106989433    1.9900210511
C        0.6992700954   -0.5710454197    0.5925201114
C        1.7499117140   -1.1828780986    2.6937810310
C        2.7865525003   -1.8222050740    0.5826066304
C        0.7031605013   -0.5596575223    1.9986561547
C        4.2075632255   -2.3912850902   -1.4456314857
C        3.9084367208   -2.4602501496   -0.1246007625
C       -0.4105627095    0.1262404830    2.6986611996
O       -1.3427940219    0.6893383813    2.1500449067
O       -0.3052700817    0.0730508985    4.0574469234
H        1.7305994575   -1.1746282328   -1.1904689708
H        3.5840719577   -2.2938225075    2.5335985772
H       -0.1145800016   -0.0783576263    0.0695350129
H        1.7550569174   -1.1741401476    3.7784261969
H        5.2460485273   -2.6087998566   -1.7020448141
H        3.5510299501   -2.7211163088   -2.2512207362
H        4.7702558240   -2.5863341024    0.5356749418
H       -1.0845712309    0.5496881891    4.4010092522
19   
torsion grid (-45,)
C        1.7546220034   -1.1773809818   -0.1035335612
C        2.7927907366   -1.7879484329    1.9951303586
C        0.7165757693   -0.5690496463    0.5895603172
C        1.7561475340   -1.1746022101    2.6957766281
C        2.8159187081   -1.7990736642    0.5879143750
C        0.7074930276   -0.5610114465    1.9955555205
C        4.1993005773   -2.4269356038   -1.4343647968
C        3.9465322521   -2.4346741979   -0.1077771528
C       -0.4199063360    0.1098297427    2.6883840941
O       -1.3540567327    0.6632993447    2.1332506345
O       -0.3251805770    0.0547494034    4.0478927792
H        1.7616935526   -1.1544349075   -1.1892593351
H        3.6024241590   -2.2640470662    2.5433012261
H       -0.0986182544   -0.0838191370    0.0617903961
H        1.7542855714   -1.1698017401    3.7804614205
H        5.1972498837   -2.7165324688   -1.7610143474
H        3.4406964783   -2.6094340336   -2.1943823158
H        4.8004557551   -2.6109863248    0.5487942373
H       -1.1126887945    0.5216330319    4.3860901667
19   
torsion grid (-30,)
C        1.7766476075   -1.1584404579   -0.1028726694
C        2.8100184846   -1.7644725929    1.9983868605
C        0.7278818753   -0.5632711303    0.5858952455
C        1.7622907382   -1.1658715580    2.6952070449
C        2.8397536026   -1.7733466423    0.5912158607
C        0.7106736785   -0.5614466321    1.9915836794
C        4.1861571106   -2.4746657458   -1.4239934287
C        3.9765657292   -2.4060393725   -0.0958587921
C       -0.4286359050    0.0929313471    2.6805992493
O       -1.3669828160    0.6371331725    2.1233842331
O       -0.3397399580    0.0340874162    4.0402950339
H        1.7852533241   -1.1312243880   -1.1883386502
H        3.6219849027   -2.2332215484    2.5494359354
H       -0.0891950881   -0.0848153956    0.0548514812
H        1.7544427530   -1.1650860014    3.7798846567
H        5.1434928491   -2.8310106691   -1.7966628208
H        3.3754213613   -2.5035959471   -2.1493660379
H        4.8241868143   -2.6279825778    0.5535483485
H       -1.1344817503    0.4901183847    4.3763754146
19   
torsion grid (-15,)
C        1.7860974413   -1.1479918657   -0.1036487081
C        2.8248055268   -1.7414963600    1.9975843734
C        0.7308897089   -0.5626367299    0.5836362001
C        1.7697427218   -1.1546416990    2.6934442548
C        2.8548425756   -1.7528083107    0.5905421052
C        0.7125122790   -0.5611546969    1.9892223233
C        4.1752220146   -2.5171917184   -1.4158622568
C        3.9962863374   -2.3839342757   -0.0909855825
C       -0.4346828036    0.0801616248    2.6772784659
O       -1.3782628913    0.6140404564    2.1189006667
O       -0.3465634932    0.0219747817    4.0370519255
H        1.7894770047   -1.1246055374   -1.1891611914
H        3.6412923836   -2.2011326869    2.5496847401
H       -0.0910553242   -0.0937028075    0.0515859770
H        1.7610984787   -1.1541640001    3.7781056510
H        5.0981791305   -2.9376931464   -1.8054839234
H        3.3738504595   -2.3760883118   -2.1368489726
H        4.8185497470   -2.6664493644    0.5661287156
H       -1.1465459833    0.4692943092    4.3723958809
19   
torsion grid (0,)
C        1.7724206715   -1.1726466270   -0.1044214930
C        2.8349964223   -1.7224950761    1.9962104700
C        0.7183628318   -0.5862507158    0.5835546739
C        1.7803934763   -1.1357453039    2.6929901133
C        2.8543078592   -1.7540721611    0.5892705442
C        0.7121866981   -0.5622227532    1.9891276096
C        4.1838149115   -2.5153617201   -1.4124830279
C        3.9957415708   -2.3884829062   -0.0890689148
C       -0.4367577448    0.0759995325    2.6771287648
O       -1.3911833310    0.5899795391    2.1185122126
O       -0.3362912909    0.0406758543    4.0368200604
H        1.7562246853   -1.1793086064   -1.1900624599
H        3.6606541303   -2.1656680637    2.5480691710
H       -0.1152152158   -0.1381420977    0.0516868265
H        1.7808635623   -1.1199436617    3.7775764516
H        5.0706709893   -3.0059744278   -1.8028298977
H        3.4747048387   -2.1425559204   -2.1469438589
H        4.7582524120   -2.7922599796    0.5763992104
H       -1.1384121631    0.4842547560    4.3720341886
19   
torsion grid (15,)
C        1.7576813435   -1.1999414571   -0.1028565568
C        2.8451507682   -1.7042660261    1.9969971528
C        0.7043026005   -0.6112626128    0.5843920559
C        1.7906950018   -1.1163183671    2.6928559778
C        2.8526479115   -1.7568064638    0.5905904076
C        0.7113377792   -0.5632976782    1.9892639401
C        4.1824475098   -2.5040237370   -1.4160681808
C        3.9911737309   -2.3932837857   -0.0908409565
C       -0.4387967089    0.0726399037    2.6774042915
O       -1.4047391415    0.5656289998    2.1196655232
O       -0.3246100938    0.0621200957    4.0364422482
H        1.7257685226   -1.2410660039   -1.1873777534
H        3.6799192841   -2.1304701187    2.5485781682
H       -0.1409669796   -0.1849826308    0.0530037680
H        1.7996899961   -1.0835995789    3.7770209192
H        5.0296002662   -3.0632278011   -1.8034942176
H        3.6214158679   -1.9232374017   -2.1439810391
H        4.6816135105   -2.9169406815    0.5700725609
H       -1.1285958555    0.5021150063    4.3719023354
19   
torsion grid (30,)
C        1.7614048678   -1.1862111897   -0.1024682345
C        2.8565299203   -1.6793916807    1.9970572326
C        0.7032491186   -0.6082386429    0.5865750523
C        1.7961501601   -1.1039518460    2.6942512776
C        2.8617945278   -1.7329326357    0.5905742417
C        0.7106490466   -0.5615092209    1.9915758985
C        4.1524415072   -2.5364988743   -1.4229878611
C        3.9990747518   -2.3647927311   -0.0964980386
C       -0.4462034141    0.0607561270    2.6811038438
O       -1.4180490388    0.5437043165    2.1248516925
O       -0.3310756636    0.0498361667    4.0400605018
H        1.7291160790   -1.2337387422   -1.1867886463
H        3.6965092603   -2.0969281783    2.5473011053
H       -0.1473857651   -0.1911341082    0.0564928854
H        1.8052951973   -1.0721048830    3.7784516731
H        4.9643382618   -3.1589012178   -1.7914906426
H        3.7292777314   -1.8563319400   -2.1596011211
H        4.6522098987   -2.9425105301    0.5585636152
H       -1.1395911336    0.4806594721    4.3765461691
19   
torsion grid (45,)
C        1.7650178063   -1.1577768240   -0.1032782506
C        2.8674687032   -1.6524940076    1.9934454397
C        0.7010288751   -0.5954437553    0.5892978261
C        1.8002470318   -1.0939784969    2.6939683882
C        2.8703855400   -1.6991200842    0.5867787131
C        0.7086305779   -0.5590199767    1.9948162644
C        4.1195991242   -2.5728635363   -1.4319261482
C        4.0065655044   -2.3242998454   -0.1093311244
C       -0.4553090796    0.0444958889    2.6890412521
O       -1.4329326741    0.5191874628    2.1358186431
O       -0.3394968438    0.0264471439    4.0478948934
H        1.7355152695   -1.2024490841   -1.1879341999
H        3.7123011370   -2.0640684220    2.5407723138
H       -0.1543164972   -0.1838030591    0.0625010152
H        1.8089388899   -1.0690291415    3.7783459764
H        4.8976143171   -3.2646014229   -1.7522584025
H        3.8537972661   -1.8537199654   -2.2056253969
H        4.6236645443   -2.9331308240    0.5539333615
H       -1.1529841783    0.4454476111    4.3873100800
19   
torsion grid (60,)
C        1.7633275651   -1.1252266815   -0.1055023217
C        2.8766738866   -1.6256262772    1.9871499430
C        0.6943604281   -0.5800511248    0.5926572818
C        1.8037771629   -1.0843242173    2.6922054049
C        2.8740347829   -1.6622355231    0.5801240171
C        0.7051157593   -0.5559870158    1.9985970116
C        4.0936910465   -2.5996013526   -1.4424183395
C        4.0074629077   -2.2791698715   -0.1274096156
C       -0.4642814482    0.0280931203    2.7001808698
O       -1.4486492122    0.4959763993    2.1531697098
O       -0.3449322593    0.0004577449    4.0585618182
H        1.7359033591   -1.1649488301   -1.1906242101
H        3.7268588514   -2.0326736012    2.5295679399
H       -0.1664401802   -0.1732539063    0.0709849212
H        1.8133105707   -1.0675620032    3.7767258375
H        4.8340100540   -3.3624557752   -1.6903959677
H        4.0064205469   -1.8882604106   -2.2641103902
H        4.5873825282   -2.9208186886    0.5408523649
H       -1.1622910355    0.4074476757    4.4032543698
19   
torsion grid (75,)
C        1.7530260699   -1.0980955120   -0.1080591923
C        2.8805481566   -1.6014292690    1.9763320017
C        0.6823733405   -0.5674202446    0.5985717880
C        1.8068298687   -1.0739729007    2.6899276013
C        2.8714753250   -1.6311666482    0.5687504783
C        0.6996222893   -0.5518200713    2.0046206861
C        4.0809533639   -2.6102931193   -1.4621276045
C        4.0001479377   -2.2411560058   -0.1511700111
C       -0.4722448210    0.0159265556    2.7155466716
O       -1.4637070570    0.4771908009    2.1758267081
O       -0.3461374719   -0.0188409758    4.0731584517
H        1.7226534670   -1.1348110562   -1.1933120339
H        3.7365062088   -2.0050055975    2.5121378600
H       -0.1849041911   -0.1659006161    0.0835787285
H        1.8214201461   -1.0636769841    3.7744636968
H        4.7800030198   -3.4371768773   -1.6219084330
H        4.1960708330   -1.9408447822   -2.3163900758
H        4.5368723344   -2.9196935452    0.5193517145
H       -1.1657735059    0.3779665099    4.4242716087
19   
torsion grid (90,)
C        1.7453285463   -1.0589748036   -0.1130485106
C        2.8843692732   -1.5783119674    1.9623057833
C        0.6721960476   -0.5471288149    0.6033264883
C        1.8087959397   -1.0676451430    2.6845404676
C        2.8699802975   -1.5926975166    0.5540712117
C        0.6939208470   -0.5476717856    2.0095121790
C        4.0727330938   -2.6178805762   -1.4809177794
C        3.9955425409   -2.1930158309   -0.1777959858
C       -0.4806451091    0.0003652010    2.7313348653
O       -1.4784694200    0.4582820702    2.2005700576
O       -0.3490218039   -0.0488670434    4.0879993207
H        1.7136397934   -1.0845081937   -1.1986650921
H        3.7446996621   -1.9822372987    2.4907892286
H       -0.2003433855   -0.1473434522    0.0959487276
H        1.8269937257   -1.0696538168    3.7690401094
H        4.7171300784   -3.5053583773   -1.5367343133
H        4.3697787522   -2.0571913930   -2.3695827552
H        4.5001073440   -2.8864532801    0.5041035199
H       -1.1710009096    0.3360716834    4.4467731220
