11   
torsion grid (-165,)
C       -0.2642713193   -0.0830694547   -2.2209020316
C        0.0496933079   -0.3340957122    0.5240865663
N        3.1508904038   -0.3736570258    1.7766716992
N        0.8131217974   -0.8338456000    1.6669339970
N        2.0288385667   -0.5597369771    1.6573007322
S        0.4768935502   -1.2486914498   -1.0259552965
H        0.2093148733    0.9012745572   -2.1619803357
H       -1.3428640033    0.0139237220   -2.0693156417
H       -0.0895041596   -0.4976872142   -3.2162872992
H        0.2226328516    0.7363141939    0.3570119724
H       -0.9991658535   -0.4926180827    0.7763784316
11   
torsion grid (-150,)
C       -0.1804395080   -0.0657796046   -2.1909949472
C       -0.0498274484   -0.3958793842    0.5793006684
N        3.1556357238   -0.2834534245    1.5231821105
N        0.8302008462   -0.7889323555    1.6821273973
N        2.0319671705   -0.4956210860    1.5342826056
S        0.3119558385   -1.3364470121   -0.9733429657
H        0.4226144174    0.8402852373   -2.0833483909
H       -1.2421922779    0.1807122390   -2.1087774557
H        0.0011065294   -0.4929232130   -3.1799936323
H        0.0358235981    0.6747444268    0.3571368031
H       -1.0612648745   -0.6085948667    0.9243706011
11   
torsion grid (-135,)
C        0.2518042692   -0.3920978739   -2.2144343222
C        0.5179276928    0.5778208503    0.4101246650
N        0.3234151378   -2.3205858350    2.0623431079
N        0.3015245526    0.0452783607    1.7607507465
N        0.3270304626   -1.1962318351    1.8520908745
S       -0.7970858057    0.0796047973   -0.7923237468
H        0.9331633652   -1.2059973557   -1.9522455774
H        0.8162174169    0.4610693711   -2.5985614864
H       -0.4261479516   -0.7414841317   -2.9967903927
H        1.4855199934    0.2601691268    0.0047972769
H        0.5222108817    1.6605654816    0.5281916488
11   
torsion grid (-120,)
C        0.2497132990   -0.4664153146   -2.1357874134
C        0.4973700471    0.6779552690    0.4266328202
N        0.3739618926   -2.3718343372    1.7827631256
N        0.3297505405    0.0121123027    1.7284400164
N        0.3673585021   -1.2307927838    1.6948798310
S       -0.7961809265    0.2607758638   -0.8216324253
H        0.7944004153   -1.3425468099   -1.7748864787
H        0.9471518285    0.2695199418   -2.5429495443
H       -0.4291520499   -0.7817771097   -2.9317455166
H        1.4780522547    0.4583441447   -0.0096354943
H        0.4431542118    1.7427697898    0.6478638735
11   
torsion grid (-105,)
C        0.2406891176   -0.5407383801   -2.0459541951
C        0.4795443800    0.7686062566    0.4346061423
N        0.4392547107   -2.3994097864    1.5025676033
N        0.3560592160   -0.0224753459    1.6736011901
N        0.4145525290   -1.2546990545    1.5243890088
S       -0.7733823141    0.4220463902   -0.8636745322
H        0.6148265187   -1.4653786520   -1.6004696615
H        1.0721428156    0.0565647180   -2.4282926159
H       -0.4173634467   -0.7979967116   -2.8793547950
H        1.4775023709    0.6585202586   -0.0037930005
H        0.3517541174    1.8030712636    0.7503176497
11   
torsion grid (-90,)
C        0.1984666672   -0.6082657658   -1.9704372227
C        0.4510746262    0.8411483440    0.4343862692
N        0.6726478161   -2.3967307335    1.3090346178
N        0.3020110082   -0.0595519330    1.5922688408
N        0.5138507376   -1.2638169776    1.3786443879
S       -0.7222615586    0.6039725098   -0.9520727014
H        0.2559337605   -1.5886917822   -1.4948505406
H        1.2030398615   -0.2414591427   -2.1980889562
H       -0.3557565748   -0.7063638880   -2.9069006278
H        1.4747624923    0.8085590605    0.0444016975
H        0.2618111788    1.8393112650    0.8275570295
11   
torsion grid (-75,)
C        0.1394195428   -0.6270673647   -1.9355640614
C        0.4147200327    0.8604590082    0.4228874432
N        1.0844652577   -2.3125953239    1.2835911743
N        0.0655854327   -0.1614624041    1.4277568468
N        0.6268439995   -1.2610870617    1.2935437132
S       -0.5804333907    0.8366039997   -1.1101889487
H       -0.1442082671   -1.5550123469   -1.4352338098
H        1.2291277907   -0.5497905599   -1.9915044953
H       -0.2614295010   -0.6422614148   -2.9517130430
H        1.4802573756    0.8177166309    0.1714456985
H        0.2012317422    1.8226077937    0.8889222763
11   
torsion grid (-60,)
C        0.1180227255   -0.6371770394   -1.9043786280
C        0.4017452219    0.8772101749    0.4244169700
N        1.2642375822   -2.2536585954    1.2447297121
N       -0.0367993074   -0.2553193556    1.2606301101
N        0.6796187762   -1.2679668190    1.2045593199
S       -0.4030597977    0.9713089443   -1.2170109250
H       -0.3563873996   -1.4651636963   -1.3737427555
H        1.2060913113   -0.7491682517   -1.8800385964
H       -0.2113008902   -0.6547856632   -2.9457155585
H        1.4908290864    0.8746246031    0.3063640914
H        0.1025827064    1.7882066550    0.9441290540
11   
torsion grid (-45,)
C        0.0908725946   -0.6606247499   -1.8859428875
C        0.4004558795    0.8979155027    0.4404597546
N        1.3898645856   -2.2097243097    1.1945773957
N       -0.0488602786   -0.3091877217    1.1496174717
N        0.7438243513   -1.2649458987    1.1329044638
S       -0.2084885701    1.0385035094   -1.2928851134
H       -0.5255920869   -1.3772579268   -1.3402621826
H        1.1463776492   -0.9394156308   -1.8172539314
H       -0.2040713200   -0.6724584034   -2.9376925315
H        1.4930568321    0.9691182313    0.4564913665
H       -0.0218596215    1.7561883541    0.9639289881
11   
torsion grid (-30,)
C        0.0633020141   -0.6795332907   -1.8837453263
C        0.4003461268    0.9094974156    0.4623929747
N        1.4978966467   -2.1737531548    1.1629073479
N       -0.0315941214   -0.3470002043    1.0818338262
N        0.8114564936   -1.2595826231    1.0882206330
S        0.0074905715    1.0638313107   -1.3467578209
H       -0.6682382084   -1.2780246716   -1.3386764845
H        1.0609713615   -1.1157472811   -1.7853256689
H       -0.2080037789   -0.6688280446   -2.9420167198
H        1.4731211057    1.0646554310    0.6141969215
H       -0.1511681961    1.7125960695    0.9509131113
11   
torsion grid (-15,)
C        0.0255800061   -0.6886214482   -1.8878558350
C        0.4001129477    0.9087500529    0.4792239926
N        1.6160057406   -2.1367580650    1.1531396184
N        0.0060154963   -0.3817416838    1.0437416837
N        0.8929940676   -1.2528840231    1.0673658951
S        0.2218110290    1.0539875206   -1.3766641985
H       -0.8176018051   -1.1565329565   -1.3780432901
H        0.9350123449   -1.2746433394   -1.7348632031
H       -0.1855747198   -0.6494913555   -2.9592508951
H        1.4318842127    1.1548684291    0.7473147212
H       -0.2706593049    1.6511778253    0.9098343049
11   
torsion grid (0,)
C       -0.0221632759   -0.6833317556   -1.8927723024
C        0.3984700439    0.8931589197    0.4861399987
N        1.7527589923   -2.0936848353    1.1602627692
N        0.0569494531   -0.4222306273    1.0245698421
N        0.9890427696   -1.2463135152    1.0651784238
S        0.4231336965    1.0143855003   -1.3827803056
H       -0.9729971932   -0.9965455257   -1.4594243472
H        0.7595874090   -1.4067732063   -1.6520490279
H       -0.1257748490   -0.6337417019   -2.9795443692
H        1.3727363081    1.2343863089    0.8482874734
H       -0.3761633393    1.5688013949    0.8460746393
11   
torsion grid (15,)
C       -0.0722929301   -0.6641843898   -1.9000935149
C        0.3959418269    0.8630228638    0.4829952178
N        1.8974804278   -2.0461307714    1.1836736372
N        0.1161244359   -0.4669002856    1.0254806947
N        1.0915947900   -1.2401251357    1.0817850222
S        0.6099423404    0.9461736387   -1.3684048116
H       -1.0999180681   -0.8023058531   -1.5591320020
H        0.5474950699   -1.4993797498   -1.5692538680
H       -0.0607457377   -0.6322104954   -2.9923211697
H        1.2975620832    1.3033365704    0.9196122537
H       -0.4676042231    1.4668145643    0.7596013344
11   
torsion grid (30,)
C       -0.1245105591   -0.6300559432   -1.9162870316
C        0.3926258112    0.8142763553    0.4703029872
N        2.0528168153   -1.9870254383    1.2471055612
N        0.1821451563   -0.5198335048    1.0424553682
N        1.2007890124   -1.2332955468    1.1250914498
S        0.7746190541    0.8533190468   -1.3413770275
H       -1.1874824402   -0.5793907379   -1.6694323462
H        0.3073355243   -1.5447953661   -1.5075031598
H       -0.0113230525   -0.6396421848   -3.0028954057
H        1.2107497033    1.3514057994    0.9610205650
H       -0.5421850100    1.3431484770    0.6554618335
11   
torsion grid (45,)
C       -0.1917104472   -0.5767839460   -1.9579011930
C        0.3945523464    0.7347032076    0.4494389427
N        2.2337374272   -1.8913845353    1.4064430027
N        0.2600203080   -0.5943916824    1.0657268689
N        1.3268378982   -1.2194750108    1.2196085553
S        0.9056310526    0.7358082188   -1.3170005652
H       -1.2443643272   -0.3261127619   -1.8023158956
H        0.0307817537   -1.5378075746   -1.4916878702
H        0.0042710457   -0.6424971641   -3.0303760837
H        1.1279756300    1.3584604908    0.9713937215
H       -0.5921526724    1.1875917146    0.5506133109
11   
torsion grid (60,)
C       -0.2600213556   -0.5179933765   -2.0081894591
C        0.3968868296    0.6413287588    0.4344240804
N        2.4056382779   -1.7802378817    1.5655996373
N        0.3457858918   -0.6621347235    1.1222274967
N        1.4511171845   -1.1952638272    1.3286685195
S        1.0015586349    0.5932158033   -1.2923902700
H       -1.2561920512   -0.0713968255   -1.9471408922
H       -0.2551895042   -1.4854480670   -1.5023343986
H        0.0034687706   -0.6592912264   -3.0585809137
H        1.0488802937    1.3484270615    0.9586814832
H       -0.6263529569    1.0169052609    0.4629775105
11   
torsion grid (75,)
C       -0.3176986820   -0.4613900174   -2.0680545421
C        0.3968004700    0.5406415039    0.4280583365
N        2.5518431310   -1.6622541444    1.7232325729
N        0.4263365395   -0.7082883798    1.2142232219
N        1.5618999403   -1.1562313102    1.4517149137
S        1.0675266214    0.4235385304   -1.2690157771
H       -1.2235156227    0.1506008532   -2.0661838087
H       -0.5080731386   -1.4139844875   -1.5685799936
H       -0.0206382578   -0.6541452382   -3.1012740453
H        0.9719157401    1.3296544728    0.9248244971
H       -0.6508167259    0.8399691737    0.3949974188
11   
torsion grid (90,)
C       -0.3735535572   -0.4073148701   -2.1310747210
C        0.4006921531    0.4324150028    0.4235556884
N        2.6789113951   -1.5273974125    1.8899627143
N        0.5038019432   -0.7386701850    1.3149867253
N        1.6619439547   -1.1009272365    1.5823890017
S        1.1036098953    0.2203192361   -1.2555029582
H       -1.1649634303    0.3461788312   -2.1485900407
H       -0.7399727544   -1.3281378153   -1.6711299147
H       -0.0670987514   -0.6226642516   -3.1572526032
H        0.9143167896    1.2932000847    0.8650871370
H       -0.6621076226    0.6611095728    0.3515117653
11   
torsion grid (105,)
C       -0.4186816173   -0.3473503981   -2.1869847496
C        0.3991915402    0.3142698668    0.4208043016
N        2.7926750858   -1.3712827839    2.0416917774
N        0.5763027476   -0.7705759724    1.4015353822
N        1.7536699148   -1.0348454836    1.6971470047
S        1.1114701926   -0.0045398296   -1.2459698405
H       -1.0652387769    0.5328736337   -2.2182101330
H       -0.9585709084   -1.1987350982   -1.7653593329
H       -0.1118406892   -0.5951658561   -3.2058670291
H        0.8520755294    1.2379768362    0.7958205736
H       -0.6754730036    0.4654860417    0.3293348397
11   
torsion grid (120,)
C       -0.4571180025   -0.2900715314   -2.2297622025
C        0.4002672620    0.1896651855    0.4087764648
N        2.8804232533   -1.1835937294    2.1920287993
N        0.6418287755   -0.8026453390    1.4652669942
N        1.8296723735   -0.9519375098    1.7995516987
S        1.0834050536   -0.2740132554   -1.2447716811
H       -0.9209971748    0.6987872842   -2.2572386919
H       -1.1642907804   -1.0292097843   -1.8447564724
H       -0.1728677749   -0.5713683959   -3.2465608034
H        0.8170482454    1.1603059364    0.6962743536
H       -0.6817912154    0.2821920957    0.3251343349
11   
torsion grid (135,)
C       -0.4736609352   -0.2270354768   -2.2587947086
C        0.3838733015    0.0494660589    0.3979103625
N        2.9493313065   -0.9542934750    2.3057821180
N        0.7065105543   -0.8606344523    1.5004551845
N        1.8947628904   -0.8588319888    1.8695602014
S        1.0109846565   -0.5439995752   -1.2408301843
H       -0.7304846831    0.8351347378   -2.2751806953
H       -1.3253610420   -0.8147704629   -1.9058569715
H       -0.2264116346   -0.5408413047   -3.2756927316
H        0.7703796029    1.0546197117    0.5954900193
H       -0.7043440021    0.0892971839    0.3511001996
11   
torsion grid (150,)
C       -0.4542936701   -0.1762901740   -2.2656948569
C        0.3326918096   -0.0714031416    0.4039116035
N        3.0102601021   -0.7615473762    2.2969221896
N        0.7511128498   -0.8890484165    1.5426681265
N        1.9447703869   -0.7734490941    1.8783569391
S        0.9057237668   -0.7819207307   -1.2071414904
H       -0.5056452370    0.9158625854   -2.2721861097
H       -1.4142255182   -0.5934795596   -1.9485408107
H       -0.2391980274   -0.5197279671   -3.2801788159
H        0.6823915000    0.9620091036    0.5035038096
H       -0.7580079473   -0.0828942728    0.4123222093
11   
torsion grid (165,)
C       -0.4075952427   -0.1368742570   -2.2588788042
C        0.2521950676   -0.1738051031    0.4290563252
N        3.0699550318   -0.6060041945    2.1878732641
N        0.7784280181   -0.8895497058    1.5897289590
N        1.9839323328   -0.6966404058    1.8387036776
S        0.7760385164   -0.9782836413   -1.1518648169
H       -0.2634008465    0.9473499884   -2.2539178304
H       -1.4396748145   -0.3756138388   -1.9862447247
H       -0.2166158607   -0.5085930046   -3.2680796916
H        0.5568408174    0.8793018899    0.4293674313
H       -0.8345230047   -0.2331767709    0.5081990048
11   
torsion grid (180,)
C       -0.3415824288   -0.1044838412   -2.2432407016
C        0.1540156302   -0.2641235272    0.4700490222
N        3.1183911863   -0.4723424810    2.0101358930
N        0.7981395057   -0.8744325138    1.6310827896
N        2.0120534039   -0.6250343126    1.7624829556
S        0.6334998889   -1.1314005924   -1.0906105649
H       -0.0197174929    0.9407714406   -2.2185229081
H       -1.4112335230   -0.1684198977   -2.0236814475
H       -0.1674928177   -0.5004054641   -3.2462416271
H        0.3989530996    0.8013977907    0.3810608294
H       -0.9194464371   -0.3734156448    0.6314285535
