6    
torsion grid (-165,)
N        1.7856622410   -1.8574843495   -0.9485055442
N       -1.7060834065    2.0090886941    0.7691161720
N        0.6380595309   -0.1854486797    0.3203887172
N       -0.7279390869    0.0143462184   -0.1180007677
N        1.1721786083   -1.0632853870   -0.3986998480
N       -1.1625586891    1.0815319255    0.3771615299
6    
torsion grid (-150,)
N        1.8043754927   -1.7514308195   -1.0321722445
N       -1.6427714986    2.0591194730    0.6710592601
N        0.5945648892   -0.2795294885    0.4164020610
N       -0.7749402774   -0.0637056422   -0.0137004621
N        1.1656097269   -1.0408754639   -0.4035702399
N       -1.1475191351    1.0751703630    0.3634418846
6    
torsion grid (-135,)
N        1.8108069295   -1.6266399603   -1.1016038062
N       -1.5650630274    2.0927925069    0.5565250586
N        0.5519977931   -0.3770832729    0.5079707755
N       -0.8231015258   -0.1365880112    0.0923628108
N        1.1513240962   -1.0124517361   -0.3986424819
N       -1.1266450679    1.0587188955    0.3448479025
6    
torsion grid (-120,)
N        1.8025030032   -1.4826927095   -1.1607038514
N       -1.4718339591    2.1073455339    0.4328525044
N        0.5108888879   -0.4780964375    0.5908337773
N       -0.8705488856   -0.2013560420    0.2009040327
N        1.1279202229   -0.9791536311   -0.3885699484
N       -1.0996100718    1.0327017081    0.3261437447
6    
torsion grid (-105,)
N        1.7801448928   -1.3243487057   -1.2066564277
N       -1.3677663908    2.1013976776    0.3033756713
N        0.4710805158   -0.5814191888    0.6609291813
N       -0.9144187542   -0.2540159739    0.3103275580
N        1.0970092814   -0.9427316728   -0.3749615379
N       -1.0667303475    0.9998662853    0.3084458142
6    
torsion grid (-90,)
N        1.7469241277   -1.1599094953   -1.2369675546
N       -1.2598212087    2.0760252019    0.1738785350
N        0.4325551509   -0.6846781547    0.7141072111
N       -0.9516091195   -0.2914976655    0.4187119400
N        1.0609468643   -0.9048468687   -0.3602378492
N       -1.0296766169    0.9636554043    0.2919679769
6    
torsion grid (-75,)
N        2.0536645203   -2.0458842506   -0.3832899130
N       -1.2661273903   -0.2736989782   -2.6211445097
N        0.7590382207   -0.0551243164   -0.0305403979
N       -0.6766975917   -0.2026401277   -0.2949610204
N        1.3714621213   -1.1403028559   -0.2408877429
N       -0.9067694697   -0.2353295103   -1.5371026041
6    
torsion grid (-60,)
N        1.9973660270   -2.0230560787   -0.5134067929
N       -1.1796894305   -0.3882316923   -2.6081843150
N        0.7362374864   -0.0647939860    0.0690270976
N       -0.6842010338   -0.1005835542   -0.2766192836
N        1.3319582491   -1.1273828793   -0.2619426757
N       -0.8671008876   -0.2489318485   -1.5168002184
6    
torsion grid (-45,)
N        1.9532054817   -1.9926082062   -0.6218770186
N       -1.1128509494   -0.4872423865   -2.5876552080
N        0.7089833640   -0.0927075683    0.1570426474
N       -0.6797533305   -0.0036614705   -0.2761686348
N        1.2990931595   -1.1176154969   -0.2786176839
N       -0.8341073147   -0.2591449107   -1.5006502901
6    
torsion grid (-30,)
N        1.9287726747   -1.9619872639   -0.6985325529
N       -1.0758115472   -0.5637230213   -2.5656143939
N        0.6771483118   -0.1360817868    0.2297261757
N       -0.6608730475    0.0870078561   -0.2926146820
N        1.2756646032   -1.1130456945   -0.2898287120
N       -0.8103305845   -0.2651501286   -1.4910620229
6    
torsion grid (-15,)
N        1.9268152369   -1.9326225645   -0.7456005738
N       -1.0674354181   -0.6161035877   -2.5463816605
N        0.6381873825   -0.1913968529    0.2875732802
N       -0.6288424583    0.1669943615   -0.3205661700
N        1.2621787437   -1.1129256327   -0.2953275101
N       -0.7963330762   -0.2669257628   -1.4876235538
6    
torsion grid (0,)
N        1.9416983525   -1.9042815502   -0.7705298958
N       -1.0806367304   -0.6511743318   -2.5292602386
N        0.5932964173   -0.2528011967    0.3309876376
N       -0.5858099120    0.2360515699   -0.3551145910
N        1.2568552829   -1.1148674010   -0.2962441149
N       -0.7908329997   -0.2659071293   -1.4877649852
6    
torsion grid (15,)
N        1.9692165176   -1.8764248611   -0.7783291413
N       -1.1109948926   -0.6734162083   -2.5129341028
N        0.5431251726   -0.3181489657    0.3609030653
N       -0.5325132043    0.2950294559   -0.3946105916
N        1.2577368839   -1.1189759894   -0.2920645792
N       -0.7920000666   -0.2610434705   -1.4908908384
6    
torsion grid (30,)
N        2.0146597545   -1.8480056069   -0.7651576468
N       -1.1648760803   -0.6809690662   -2.4971133759
N        0.4888201025   -0.3871798606    0.3749966499
N       -0.4691914797    0.3416173387   -0.4398094366
N        1.2658509327   -1.1264443173   -0.2825437999
N       -0.8006928190   -0.2519985268   -1.4982985787
6    
torsion grid (45,)
N        2.0845036070   -1.8184243146   -0.7232839099
N       -1.2510743411   -0.6694039675   -2.4813780188
N        0.4343841516   -0.4588402276    0.3688953373
N       -0.3979095525    0.3710084093   -0.4929502840
N        1.2844669439   -1.1374382620   -0.2677807981
N       -0.8198003983   -0.2398816768   -1.5114285144
6    
torsion grid (60,)
N        2.1736071796   -1.7873056342   -0.6524098529
N       -1.3653351406   -0.6365806990   -2.4633629664
N        0.3834725563   -0.5337232635    0.3417734932
N       -0.3214400514    0.3813371596   -0.5558633916
N        1.3120675424   -1.1533075337   -0.2473074167
N       -0.8478016756   -0.2234000683   -1.5307560534
6    
torsion grid (75,)
N        2.2766160233   -1.7512262857   -0.5537820344
N       -1.4986782007   -0.5796460224   -2.4428600943
N        0.3397125461   -0.6131102284    0.2926162211
N       -0.2472436591    0.3674254801   -0.6261904259
N        1.3494620578   -1.1706650112   -0.2235091280
N       -0.8852983568   -0.2057579715   -1.5542007264
6    
torsion grid (90,)
N        1.2595948918   -2.0764420127   -0.1733910643
N       -1.7471503543    1.1594927931    1.2374549566
N        0.9513816119    0.2910803530   -0.4182263748
N       -0.4327830428    0.6842601273   -0.7136206437
N        1.0294499036   -0.9640724235   -0.2914813505
N       -1.0611738124    0.9044295846    0.3607247359
6    
torsion grid (105,)
N        1.3670986245   -2.1015594480   -0.3028330503
N       -1.7799083989    1.3234582503    1.2072822428
N        0.9143633387    0.2540406245   -0.3095338408
N       -0.4714060933    0.5808601879   -0.6609439635
N        1.0664904020   -0.9999323463   -0.3076663783
N       -1.0973186753    0.9418811534    0.3751552493
6    
torsion grid (120,)
N        1.4716074688   -2.1077625593   -0.4323652169
N       -1.8027294361    1.4822759130    1.1611909701
N        0.8703216938    0.2009390088   -0.2004183284
N       -0.5111165916    0.4776784777   -0.5903469710
N        1.0993832452   -1.0331187791   -0.3256571046
N       -1.1281471825    0.9787363606    0.3890569101
6    
torsion grid (135,)
N        1.5648364663   -2.0932096704   -0.5560378976
N       -1.8110335073    1.6262231313    1.1020908308
N        0.8228744456    0.1361710842   -0.0918769943
N       -0.5522253741    0.3766653823   -0.5074838498
N        1.1264182312   -1.0591359908   -0.3443612612
N       -1.1515510640    1.0120344853    0.3991294314
6    
torsion grid (150,)
N        1.6425446985   -2.0595366096   -0.6705721451
N       -1.8046021640    1.7510138557    1.0326591330
N        0.7747133506    0.0632887535    0.0141863695
N       -0.5947923190    0.2791116620   -0.4159149920
N        1.1472922814   -1.0755874218   -0.3629552620
N       -1.1658366499    1.0404581820    0.4040571558
6    
torsion grid (165,)
N        1.7058564322   -2.0095059315   -0.7686292503
N       -1.7858890694    1.8570673144    0.9489922260
N        0.7277123841   -0.0147629301    0.1184867962
N       -0.6382868211    0.1850308772   -0.3199013910
N        1.1623318419   -1.0819489976   -0.3766748985
N       -1.1724055701    1.0628680894    0.3991867768
6    
torsion grid (180,)
N        1.7513939553   -1.9437484830   -0.8612156590
N       -1.7519445394    1.9432953473    0.8613997063
N        0.6828661570   -0.0967634114    0.2194356910
N       -0.6828688238    0.0963723222   -0.2187633127
N        1.1703715889   -1.0777527648   -0.3896866275
N       -1.1704991404    1.0773454115    0.3902904611
