28   
torsion grid (-165,)
H       -1.0046907727    2.2553040027   -1.1284379794
C       -0.3111560183    1.4215293070   -1.2509207306
C       -0.1456405186    0.6499145048    0.0606604158
O        0.8031179436    1.2830978940    0.9240235544
C        0.4342276084    2.3954031425    1.5874705561
C        1.6280700480    2.9726819559    2.3002044678
O       -0.6989934860    2.8556497129    1.5697916064
O       -0.9307355191    0.4423640587   -2.1459153133
C       -1.7249766389    0.9009225898   -3.1288843395
C       -2.1887928955   -0.2405257993   -4.0090268639
O       -2.0249431949    2.0697969378   -3.3023586796
C        0.9953263433    1.9519829082   -1.8322625757
O        1.9956802625    0.9564367717   -1.9111958124
P        3.4414539106    1.1378945531   -1.0631229384
O        4.5446754898    0.7028853549   -1.9845286606
O        3.2645050572   -0.0907657553    0.0586157925
O        3.3913072554    2.4601495810   -0.3460362394
H        0.2760141909   -0.3362478380   -0.1301891932
H       -1.1128416710    0.5552448115    0.5632919891
H        2.4357443390    3.0798660511    1.5639684647
H        1.9798551780    2.2650489819    3.0582870671
H        1.3598669294    3.9218510106    2.7667244293
H       -2.5613869808   -1.0691715546   -3.4008356399
H       -1.3365316707   -0.6133300703   -4.5860744156
H       -2.9642446203    0.1131908895   -4.6892843226
H        1.3353520779    2.7903109776   -1.2156027121
H        0.7882194946    2.3337140769   -2.8402531409
H        3.8305905857   -0.8064480450   -0.2724350273
28   
torsion grid (-150,)
H       -0.7056718743    2.0445835297   -1.2430785837
C       -0.1002807608    1.1377980495   -1.3127638534
C       -0.0355683125    0.4228005726    0.0380194187
O        0.9751554674    1.0173774108    0.8543690029
C        0.6583482142    2.0328041912    1.6774562690
C        1.9121271444    2.5319080445    2.3489328651
O       -0.4739122474    2.4710336020    1.8257884903
O       -0.8029444575    0.1911727738   -2.1791597823
C       -1.5474878676    0.6879574510   -3.1825810536
C       -2.1073310523   -0.4339901705   -4.0310026179
O       -1.7406708101    1.8731911092   -3.3935620023
C        1.2654723654    1.5077135707   -1.8855349425
O        2.1697707208    0.4221221031   -1.8741306967
P        3.6086566419    0.5271267208   -0.9983170003
O        4.6898848004   -0.0477249504   -1.8680838107
O        3.3028410194   -0.6235393220    0.1778558545
O        3.6583434436    1.8841606928   -0.3506026384
H        0.2726787125   -0.6151348858   -0.0856651970
H       -1.0063842980    0.4681853365    0.5385887453
H        2.7075565827    2.5968041184    1.5963781348
H        2.2356742987    1.7955899000    3.0928640629
H        1.7156395138    3.4871375820    2.8387904731
H       -2.5570536275   -1.2058576014   -3.4006843577
H       -1.2888663338   -0.9004879032   -4.5885019130
H       -2.8434089574   -0.0334096801   -4.7287551037
H        1.6664344331    2.3460563471   -1.3066307536
H        1.1195523290    1.8443220560   -2.9203710605
H        3.8188058106   -1.3974299591   -0.0999061144
28   
torsion grid (-135,)
H       -0.8211750682    2.0211703946   -1.3801111868
C       -0.2726557253    1.0759850433   -1.4103614275
C       -0.2514580997    0.4117324942   -0.0335047478
O        0.7756143260    1.0277327354    0.7445378977
C        0.4824502005    1.8707463389    1.7463571138
C        1.7702319316    2.3547394757    2.3686451915
O       -0.6505034973    2.1792397711    2.0889429782
O       -1.0263875451    0.1418599637   -2.2451225341
C       -1.7224344311    0.6416870777   -3.2810775085
C       -2.3345853531   -0.4777531033   -4.0956675276
O       -1.8391428910    1.8272568310   -3.5416821803
C        1.1183800663    1.3374782707   -1.9863525547
O        1.9456640885    0.1930909937   -1.9416382854
P        3.3554615379    0.1945618108   -1.0118977224
O        4.3947552015   -0.5337470286   -1.8152688830
O        2.8908656761   -0.8626709747    0.2032352609
O        3.5239803247    1.5669215150   -0.4211312994
H        0.0347419604   -0.6369153484   -0.1217413798
H       -1.2202555131    0.5045830077    0.4627610133
H        2.5555816894    2.3865502641    1.6063664667
H        2.0795073039    1.6285303807    3.1290607514
H        1.6077110222    3.3214931478    2.8496797627
H       -2.8294226518   -1.2028737401   -3.4441322128
H       -1.5369202097   -1.0052820414   -4.6284732417
H       -3.0421193726   -0.0635606278   -4.8146704630
H        1.5733691209    2.1613360976   -1.4270494352
H        0.9996112076    1.6520449795   -3.0313793622
H        3.3233005925   -1.7006771900   -0.0273106260
28   
torsion grid (-120,)
H       -0.9974069823    2.7684556132   -1.2565613368
C       -0.4244320630    1.8450279217   -1.3856373725
C       -0.2028921606    1.1695901714   -0.0368320997
O        0.4474014280    2.1312239830    0.8275740309
C       -0.1493842058    2.4836864021    1.9775188154
C        0.7294413897    3.4531072950    2.7365678773
O       -1.2360659084    2.0809248399    2.3621716558
O       -1.2447892128    0.8951860049   -2.1307059912
C       -2.0368926979    1.3775110396   -3.1028642183
C       -2.6930712879    0.2443296890   -3.8609216269
O       -2.1993076086    2.5606770725   -3.3514561350
C        0.8636770247    2.1523206253   -2.1466382218
O        1.5930485587    0.9751007614   -2.4404924349
P        3.0812033987    0.6952575758   -1.6977347544
O        3.8675712106   -0.1528857584   -2.6536283733
O        2.5951358537   -0.3353772995   -0.4558476799
O        3.5278721925    1.9811264044   -1.0695636158
H        0.4839582126    0.3272537796   -0.1305107202
H       -1.1527016670    0.8630198383    0.4021260449
H        0.9288559011    4.3342484182    2.1199107352
H        1.6952853701    2.9835257484    2.9432033585
H        0.2400236877    3.7444097405    3.6663641169
H       -3.1082669677   -0.4932915715   -3.1691045157
H       -1.9323631216   -0.2617896783   -4.4638562589
H       -3.4727786353    0.6407089832   -4.5121772106
H        1.4665277434    2.8446463679   -1.5483792206
H        0.5997500725    2.6422413232   -3.0916739169
H        2.7740131904   -1.2304438571   -0.7862440963
28   
torsion grid (-105,)
H       -1.2630838423    3.0492222916   -1.6697116338
C       -0.6553269654    2.1414674680   -1.7191204471
C       -0.4448855083    1.5347142706   -0.3352895776
O        0.4775801376    2.4045360950    0.3298253259
C        0.3248455747    2.7197984979    1.6221147414
C        1.4837959531    3.5854564554    2.0622395935
O       -0.6110378259    2.3647944044    2.3238388751
O       -1.4117850368    1.1233086700   -2.4442373470
C       -2.2177996105    1.5263678968   -3.4410013630
C       -2.8198416893    0.3326138512   -4.1505385193
O       -2.4309635712    2.6883912096   -3.7447301539
C        0.6609732243    2.4623748925   -2.4320723397
O        1.5465925379    1.3593578947   -2.4468195407
P        2.9810241866    1.3922708889   -1.5552554374
O        3.9712543798    0.5789547745   -2.3373058000
O        2.5300024220    0.4353597327   -0.2482683006
O        3.1942550825    2.7920627344   -1.0562648426
H        0.0569475703    0.5719936558   -0.4498071531
H       -1.3753298296    1.4406739943    0.2275179529
H        1.1971297536    4.6380020276    1.9546324854
H        2.3512651721    3.3947132183    1.4255057832
H        1.6988976929    3.3950247459    3.1158509283
H       -3.2123091333   -0.3877887377   -3.4279616600
H       -2.0350904752   -0.1713943880   -4.7237177866
H       -3.6083739789    0.6663612800   -4.8258043660
H        1.1234660305    3.3199715636   -1.9332537484
H        0.4304536088    2.7403154740   -3.4681076248
H        2.9174354513   -0.4348772670   -0.4350011766
28   
torsion grid (-90,)
H       -0.9872659387    2.5828228409   -1.3281582849
C       -0.4015645634    1.6687923747   -1.4573117594
C       -0.1374389102    0.9748383469   -0.1254730265
O        0.8129049382    1.8137029409    0.5391046789
C        0.9052704613    1.7974352611    1.8772868750
C        2.0945057204    2.6261267782    2.3008981611
O        0.1400434163    1.1985732056    2.6176282131
O       -1.2085169592    0.7098598164   -2.2088499235
C       -2.0496863479    1.1877060079   -3.1411466808
C       -2.6999470456    0.0514021457   -3.9007357240
O       -2.2566583035    2.3698648965   -3.3600073568
C        0.8920151707    2.0053195644   -2.2059516161
O        1.7628018731    0.8926992826   -2.2982669214
P        3.2303242833    0.8724761967   -1.4637926869
O        4.1726598587    0.0623675195   -2.3052944996
O        2.8157224492   -0.1091015131   -0.1622203173
O        3.4909082286    2.2525591564   -0.9328033654
H        0.3559153762    0.0236316263   -0.3358974417
H       -1.0411451039    0.8405042840    0.4718927928
H        1.8207498321    3.6871986816    2.2754959322
H        2.9078606529    2.4745960191    1.5849642214
H        2.3842401088    2.3572817291    3.3181069617
H       -3.0491157419   -0.7236086791   -3.2135247551
H       -1.9540196669   -0.4050618830   -4.5594111582
H       -3.5269298743    0.4355850956   -4.4988632683
H        1.3841829124    2.8357465778   -1.6904509940
H        0.6280483681    2.3276075499   -3.2208596364
H        3.1819374557   -0.9812847991   -0.3799144481
28   
torsion grid (-75,)
H       -1.7450828527    2.4977817924   -1.1480222905
C       -1.1128521954    1.6062820182   -1.1686219292
C       -1.1098794941    0.8838822101    0.1734907798
O       -0.3787006573    1.7539545393    1.0444026363
C       -0.3682071991    1.4837405701    2.3633055012
C        0.6787226444    2.3334519523    3.0383540872
O       -1.0983556400    0.6658905158    2.8994441875
O       -1.7061578428    0.6443718401   -2.0953360642
C       -2.3493618718    1.1223779763   -3.1735129771
C       -2.7726550110   -0.0107054546   -4.0834748860
O       -2.5562284081    2.3029392711   -3.4014029315
C        0.2961211670    2.0034370574   -1.6197890472
O        1.2059943900    0.9196791615   -1.5515916436
P        2.4621067603    0.9181017989   -0.4264645958
O        3.5785914749    0.1382136668   -1.0551394049
O        1.8041080600   -0.0808181834    0.7559385702
O        2.5709043273    2.2948286707    0.1632271737
H       -0.5361400996   -0.0375758097    0.0559536481
H       -2.1155271832    0.6868094489    0.5513515996
H        0.3588197369    3.3815547126    3.0361597444
H        1.6020348898    2.2714223602    2.4525860101
H        0.8203192097    1.9954881706    4.0659577658
H       -3.2322876848   -0.8181859743   -3.5076377784
H       -1.8833133672   -0.4212129583   -4.5725458056
H       -3.4637800905    0.3637922055   -4.8393330657
H        0.6399481621    2.8327057831   -0.9942062588
H        0.2407318012    2.3464966602   -2.6603452751
H        2.2152084013   -0.9493078737    0.6194267072
28   
torsion grid (-60,)
H       -1.5657666730    2.6996706015   -1.2165804336
C       -0.7927770440    1.9267294848   -1.1996327016
C       -0.7589407749    1.2001946753    0.1391805916
O       -0.2765264697    2.1753459428    1.0721687279
C       -0.0738778422    1.7656190505    2.3451095156
C        0.7799984458    2.7715534307    3.0708572940
O       -0.5269623987    0.7296596981    2.8006311472
O       -1.1608927003    0.8901270940   -2.1622239229
C       -1.8118916013    1.2662048115   -3.2754633274
C       -1.9854066924    0.0886670157   -4.2105937752
O       -2.2010467599    2.3978928473   -3.5129600795
C        0.5491659157    2.5630092503   -1.5680430151
O        1.6233121114    1.6430367102   -1.4821367916
P        2.8077353468    1.8189143798   -0.2976701963
O        4.0599002842    1.2290097102   -0.8736838586
O        2.2490213616    0.7252902540    0.8492037317
O        2.6710506629    3.1866006771    0.3083812623
H       -0.0343635405    0.3862071171    0.0822228035
H       -1.7442149168    0.8248598902    0.4292164855
H        0.2552860782    3.7315251921    3.1306234741
H        1.6888951822    2.9301755982    2.4791563580
H        1.0059701464    2.4071066104    4.0739399930
H       -2.3406027196   -0.7893230955   -3.6647584348
H       -1.0120380048   -0.1651444070   -4.6426837442
H       -2.6808332710    0.3522252876   -5.0081784506
H        0.7210478864    3.4171760217   -0.9061027627
H        0.4848407295    2.9260628484   -2.6012689361
H        2.7658372006   -0.0864362594    0.7247973628
28   
torsion grid (-45,)
H       -1.2156473670    2.6078849934   -1.3161406434
C       -0.4546798961    1.8240695396   -1.2671626633
C       -0.5056174104    1.0994769170    0.0720860873
O       -0.0935631435    2.0652504785    1.0494366284
C        0.2637036993    1.5824752208    2.2687293971
C        1.1125454448    2.5927194191    2.9909384009
O       -0.0810528319    0.4898737410    2.6811212256
O       -0.7985347895    0.7926458243   -2.2441704996
C       -1.4070012742    1.1761938797   -3.3787934755
C       -1.5568998715    0.0018158630   -4.3218172597
O       -1.7781464027    2.3114856081   -3.6275797449
C        0.9025901876    2.4480327314   -1.5875095898
O        1.9624650634    1.5109991416   -1.5152359854
P        3.1323583724    1.6490932984   -0.3139111288
O        4.3766954502    1.0289363411   -0.8729996215
O        2.5193640819    0.5782175256    0.8224559045
O        3.0192762341    3.0170970947    0.2982385235
H        0.1911824979    0.2606456390    0.0848414059
H       -1.5180226075    0.7406279049    0.2855737892
H        0.5701039421    3.5396284905    3.0867468527
H        2.0003846282    2.7810611870    2.3747591512
H        1.3816335328    2.2104183735    3.9765639882
H       -1.9343101144   -0.8754568991   -3.7899560120
H       -0.5713642036   -0.2561645953   -4.7227161437
H       -2.2245837045    0.2711728580   -5.1408954378
H        1.0736633999    3.2784087683   -0.8955513901
H        0.8613044669    2.8465930560   -2.6088786305
H        2.9765240187   -0.2673743500    0.6916183660
28   
torsion grid (-30,)
H       -1.9009643778    2.5894488121   -1.2718030186
C       -1.0431470630    1.9169523311   -1.1807411557
C       -1.1313094556    1.1271381934    0.1201214145
O       -0.9853708509    2.0750566607    1.1880738922
C       -0.4621428358    1.6031211832    2.3583491865
C        0.1846169720    2.7212702208    3.1257604531
O       -0.5498156656    0.4389443302    2.6993326760
O       -1.1520186248    0.8973697032   -2.2222201292
C       -1.7262640681    1.2428440791   -3.3867846539
C       -1.6187797376    0.1108721213   -4.3855821725
O       -2.2507453543    2.3195858641   -3.6190566891
C        0.2245998004    2.7456787008   -1.3625657231
O        1.4051658554    1.9666148513   -1.2991814451
P        2.4914243638    2.1986389375   -0.0368239344
O        3.8301567590    1.7738347627   -0.5572701239
O        1.9655534184    1.0159929925    1.0249489712
O        2.1678523200    3.5102475925    0.6240125455
H       -0.3600528427    0.3613074483    0.2034160857
H       -2.1105231741    0.6381563030    0.1883544921
H       -0.5111990497    3.5604255986    3.2312074130
H        1.0421899550    3.0720329402    2.5362818800
H        0.5002431405    2.3611754744    4.1059693108
H       -1.8914462641   -0.8409414127   -3.9223103953
H       -0.5777324373    0.0296058346   -4.7144307893
H       -2.2577646459    0.3169954957   -5.2449179673
H        0.2363203774    3.5319623824   -0.6012995193
H        0.1758686181    3.2206625936   -2.3506389244
H        2.4924367946    0.2179948672    0.8618626634
28   
torsion grid (-15,)
H       -1.4854541777    2.6213756066   -1.2970079372
C       -0.7012263881    1.8648190865   -1.2012679172
C       -0.8857981629    1.1079855930    0.1106610348
O       -0.6602724681    2.0315903044    1.1865868007
C        0.0199360987    1.5580091944    2.2807088824
C        0.7797346810    2.6668774303    2.9486456241
O       -0.0439758774    0.3988205786    2.6386697374
O       -0.9234306273    0.8489608331   -2.2279524766
C       -1.4988636435    1.2301176038   -3.3812181301
C       -1.5130834074    0.0830930818   -4.3682382441
O       -1.9388922582    2.3442322373   -3.6119432354
C        0.6363035635    2.5627841828   -1.4107812153
O        1.7339928976    1.6704418080   -1.3936320448
P        2.9329801085    1.8551266674   -0.2279606126
O        4.1859419570    1.2988202807   -0.8301368794
O        2.3869464924    0.7739915390    0.9220903215
O        2.7700730509    3.2141480689    0.3969190574
H       -0.2434756270    0.2352073380    0.2290866626
H       -1.9228557550    0.7521092294    0.1621272926
H        0.1413998567    3.5483627907    3.0681964158
H        1.6125881727    2.9414293522    2.2860367602
H        1.1535396460    2.3268742341    3.9155112126
H       -1.8704336578   -0.8328070002   -3.8901484749
H       -0.4890651629   -0.1022822777   -4.7078648282
H       -2.1410445438    0.3403991943   -5.2218232519
H        0.7477643093    3.3365236727   -0.6445896581
H        0.6020978093    3.0560071302   -2.3911064857
H        2.7592308986   -0.0988528260    0.7207440803
28   
torsion grid (0,)
H       -1.0010654700    2.8471414378   -1.6825464992
C       -0.4469454223    1.9790112862   -1.3188497682
C       -1.0520932976    1.4432455400   -0.0208733889
O       -0.6957013951    2.3313960301    1.0492979194
C       -0.0150787974    1.7761440365    2.1079943573
C        0.7793807981    2.8156021896    2.8391469946
O       -0.0730711664    0.5943082507    2.3820648135
O       -0.6349026310    0.8911142821   -2.2758573707
C       -0.8925872956    1.2129773512   -3.5570131663
C       -0.8974696179   -0.0281346990   -4.4223359690
O       -1.0829712383    2.3434359743   -3.9723427323
C        1.0210505693    2.3572903747   -1.2065387752
O        1.7330934835    1.3386597288   -0.5306627397
P        3.3221195440    1.7600792991   -0.1342280047
O        4.1015916906    1.8776296565   -1.4150462453
O        3.7245837791    0.3387430428    0.6113042169
O        3.2526551575    2.8438708500    0.9056824363
H       -0.7049719797    0.4350406694    0.2018457221
H       -2.1450521155    1.4245532728   -0.1001893653
H        0.2675560974    3.7817932500    2.8319078411
H        1.7342290006    2.9212848352    2.2954502953
H        0.9732129823    2.4807489558    3.8599350607
H       -1.4452305650   -0.8389455997   -3.9354117096
H        0.1358055381   -0.3635555328   -4.5584207877
H       -1.3341986755    0.2035614761   -5.3943827131
H        1.0800555435    3.3034681155   -0.6530680537
H        1.4290924676    2.5262792532   -2.2118865886
H        4.0776016061   -0.2454009560   -0.0787581552
28   
torsion grid (15,)
H        0.4029790922    3.0311726913   -2.6162778482
C        0.8472396641    2.4591248272   -1.7939178017
C        0.1287344717    2.8676020395   -0.5073265049
O        0.6404861390    2.1200426782    0.6018933098
C       -0.0662303199    1.1051309454    1.1183153879
C        0.6740355022    0.5227971439    2.2974943238
O       -1.1484993253    0.7200141961    0.6907998973
O        0.5827140567    1.0451515496   -2.0261577335
C       -0.6074873658    0.7189560667   -2.5647198833
C       -0.8542210018   -0.7653047399   -2.4535593547
O       -1.3918238281    1.5191546993   -3.0503137666
C        2.3598320637    2.6654779285   -1.8323348686
O        3.0593304402    1.9781959340   -0.8180190842
P        3.5889734966    2.8303725300    0.5285897026
O        2.8757965125    4.1642332651    0.5493526624
O        5.1612165011    3.1759239882    0.0612759434
O        3.6355310389    1.8400977598    1.6486265026
H       -0.9361476056    2.6638862248   -0.6355870122
H        0.3346590437    3.9153214136   -0.2825906295
H        0.3471261122    1.0485910386    3.2025725934
H        1.7508014308    0.6872989133    2.1831610331
H        0.4179617659   -0.5341767298    2.4006754604
H       -1.2082203361   -0.9553067437   -1.4346183296
H        0.0689448507   -1.3304131679   -2.6015165625
H       -1.6196735196   -1.0704432929   -3.1688448246
H        2.5369248830    3.7463864221   -1.7803488822
H        2.7188479955    2.2930387331   -2.8016100986
H        5.1661835683    4.1294949635   -0.1179104225
28   
torsion grid (30,)
H        0.2396763593    2.9205765371   -2.8100630071
C        0.7550349407    2.4464495746   -1.9666564208
C        0.0857645731    2.9583090433   -0.6901467258
O        0.6740184865    2.3953269096    0.4893265790
C        0.1699661010    1.2686250339    1.0180231911
C        1.0089334538    0.8432349327    2.1966919526
O       -0.8308085351    0.6943669474    0.6062191814
O        0.5641387537    1.0080506988   -2.0693730038
C       -0.6347578843    0.5729041125   -2.5009531725
C       -0.7651824364   -0.9163083456   -2.3005605384
O       -1.5033525173    1.2909116566   -2.9716581419
C        2.2499398907    2.7231099229   -2.1040755968
O        3.0238184636    2.1679176289   -1.0623969972
P        3.6289322063    3.1822725179    0.1297339730
O        2.8760135300    4.4919575599    0.0618631751
O        5.1469428930    3.5113710013   -0.5008479445
O        3.7953785557    2.3244691372    1.3439092196
H       -0.9806675929    2.7255334213   -0.7263549728
H        0.2613976042    4.0322201584   -0.6060823303
H        0.6964655952    1.4215252683    3.0743532733
H        2.0624070687    1.0786952229    2.0065908116
H        0.8432243769   -0.2175037491    2.3959658847
H       -1.0055105166   -1.0765539842   -1.2445711093
H        0.1779810208   -1.4252635237   -2.5134099485
H       -1.5698801963   -1.3066613691   -2.9256609769
H        2.3748058987    3.8108450754   -2.1590540314
H        2.5834797115    2.2776788806   -3.0514245194
H        5.1109186277    4.4432711844   -0.7684907178
28   
torsion grid (45,)
H        0.0547553342    2.7951130908   -3.1199765874
C        0.6449992754    2.2965152939   -2.3415599442
C        0.2284279180    2.9377187539   -1.0163660164
O        0.9184855211    2.4297655320    0.1347601705
C        0.5288733918    1.2691553893    0.6938726811
C        1.5215664238    0.8531349264    1.7479207957
O       -0.4980545479    0.6707181664    0.4012068880
O        0.3195988134    0.8817567257   -2.3698294347
C       -0.9682347459    0.5478066441   -2.5731216020
C       -1.1782500689   -0.9285116311   -2.3468215249
O       -1.8458750561    1.3371744791   -2.8868494367
C        2.1208991065    2.4288133179   -2.7057555296
O        2.9813590921    1.8607643845   -1.7406807025
P        3.8980668702    2.8824599696   -0.7774207024
O        3.2718851920    4.2578853160   -0.8114703827
O        5.2869466324    3.0066996487   -1.7083812900
O        4.2148167462    2.0899903313    0.4512390291
H       -0.8520020541    2.8590468560   -0.8738224998
H        0.5267496909    3.9876580919   -1.0544102993
H        1.4146257018    1.5137724405    2.6161331346
H        2.5409286917    0.9914177634    1.3669683400
H        1.3212129673   -0.1765431628    2.0497523058
H       -1.1980365234   -1.0876114508   -1.2642951393
H       -0.3482912668   -1.5088712602   -2.7575846786
H       -2.1268911238   -1.2404374593   -2.7865152697
H        2.3292686019    3.4956130526   -2.8456854189
H        2.2772818237    1.9059547557   -3.6592549847
H        5.2970790160    3.9245438319   -2.0226498151
28   
torsion grid (60,)
H        0.2954947280    2.8331494414   -2.9421080371
C        0.7596142406    2.2482707013   -2.1379695091
C        0.2479595273    2.8752087033   -0.8383362021
O        0.7435061795    2.3268430747    0.3945477207
C        0.3834288553    1.0880833174    0.7881252193
C        1.2623186526    0.6340700639    1.9225626922
O       -0.5508931931    0.4584757293    0.3125787716
O        0.3539617991    0.8666373633   -2.3069269797
C       -0.9317915699    0.6328716036   -2.6244086830
C       -1.2368060006   -0.8427832067   -2.5558623889
O       -1.7389965368    1.5001223860   -2.9219298067
C        2.2722469681    2.2981221908   -2.3289623712
O        2.9754289184    1.6705412813   -1.2756721840
P        3.8952487088    2.6288290342   -0.2537113867
O        3.3481969679    4.0370186539   -0.2923620847
O        5.3317849548    2.6915259587   -1.1166431993
O        4.1011413137    1.8013949641    0.9756688394
H       -0.8436073145    2.9266987709   -0.8139253045
H        0.6451871743    3.8934921769   -0.8216842283
H        1.0948797093    1.2835105619    2.7892283557
H        2.3156180524    0.7565287681    1.6387593789
H        1.0183345691   -0.3976732658    2.1815860060
H       -1.2891030305   -1.1132259406   -1.4971469195
H       -0.4337118938   -1.4272041546   -3.0124822420
H       -2.1908669759   -1.0476831153   -3.0438247650
H        2.5570778863    3.3520344800   -2.4210946433
H        2.5105670897    1.7799667137   -3.2676803728
H        5.4283856154    3.6215166224   -1.3755229408
28   
torsion grid (75,)
H        0.7632762454    3.4920181880   -1.7904247547
C        0.8451628038    2.6977600886   -1.0367041702
C       -0.1938187539    3.0726321194    0.0263049675
O       -0.1887585207    2.3827190388    1.2890182143
C       -0.3202339331    1.0284629676    1.3151599566
C        0.1675719923    0.4701675920    2.6192900341
O       -0.8129817497    0.3869336999    0.4024796118
O        0.6063160264    1.4371139547   -1.7047813637
C       -0.4879455837    1.3311699795   -2.4743049585
C       -0.7063018781   -0.1036858471   -2.8852199882
O       -1.2107277851    2.2670299923   -2.7851150098
C        2.2815628743    2.6708440671   -0.5342616974
O        2.4449511189    1.6770774670    0.4563835267
P        3.6362617983    1.9059812061    1.6101959538
O        3.7786302138    3.3843593846    1.8744720859
O        4.9922280483    1.4719693403    0.7268171838
O        3.3601336768    0.8594267485    2.6444200092
H       -1.2082235532    3.1201727005   -0.3767317586
H        0.0679385927    4.0950347432    0.3184432707
H       -0.1439203306    1.1103342589    3.4498803303
H        1.2683877225    0.4661702906    2.6113453047
H       -0.2140254618   -0.5445178541    2.7475580391
H       -1.0384944644   -0.6489609623   -1.9966634908
H        0.2302943102   -0.5569173140   -3.2205130801
H       -1.4643214409   -0.1564208360   -3.6679377361
H        2.5280049709    3.6600616684   -0.1287026187
H        2.9436928193    2.4683718619   -1.3893059198
H        5.5199615669    2.2829458448    0.6570485286
28   
torsion grid (90,)
H        1.1345983020    3.3561550311   -1.6857713845
C        1.2162096267    2.5170382147   -0.9818930174
C        0.3820244011    2.9717817173    0.2213190560
O        0.2427860418    2.1502448800    1.4003537903
C        0.0286931796    0.8151964438    1.3691560972
C        0.4423152201    0.1966605834    2.6768109840
O       -0.4796373520    0.2168664268    0.4350555751
O        0.7541990874    1.3339538833   -1.6782372543
C       -0.4292754583    1.3937154096   -2.3078160583
C       -0.8419928288    0.0245220903   -2.7901680554
O       -1.0812473656    2.4155699974   -2.4639851878
C        2.6978307881    2.3049994676   -0.6746874868
O        2.9105267847    1.5031033192    0.4730914368
P        3.6101209685    2.2399718029    1.8053858821
O        3.1658359796    3.6837793168    1.8494584274
O        5.2092743136    2.2873839880    1.3036197249
O        3.4618632102    1.2504213282    2.9171391463
H       -0.6034620661    3.3380361694   -0.0757718534
H        0.9422524976    3.8253404870    0.6174111412
H       -0.0188141826    0.7414569091    3.5070623241
H        1.5291154469    0.3072727478    2.7927296007
H        0.1416483907   -0.8524435093    2.6954522660
H       -1.1013881162   -0.5676816836   -1.9080255926
H       -0.0095510316   -0.4748883928   -3.2936723368
H       -1.7004142771    0.1088744569   -3.4581087013
H        3.1489266757    3.2941728499   -0.5455979096
H        3.1607554034    1.8143739513   -1.5401476954
H        5.4356856004    3.2299895803    1.2676947875
28   
torsion grid (105,)
H       -0.9705175661    1.8895635605   -1.2722869849
C       -0.2836724691    1.0630504457   -1.4454814592
C        0.0413772794    0.2873198222   -0.1605496893
O        0.4352169510    1.0190707483    1.0234978053
C        0.8675453386    2.3058738501    1.0232917115
C        1.9087427682    2.5143848129    2.0901023630
O        0.4360025850    3.1787518275    0.2918815065
O       -0.9794940819    0.0327570016   -2.2353248266
C       -1.8746154677    0.4342841026   -3.1500126088
C       -2.3828620086   -0.7505734916   -3.9456519437
O       -2.2287591482    1.5872139183   -3.3339293953
C        0.9232049489    1.5605867950   -2.2465388570
O        1.8631300717    0.5332243406   -2.5305088071
P        3.2515110843    0.3855343221   -1.5964593564
O        4.4077804959    0.1920809535   -2.5311201976
O        2.9488541030   -1.1042187811   -0.8878117764
O        3.1703606293    1.4138936297   -0.5014717512
H        0.8574068371   -0.4037453126   -0.3752982527
H       -0.8494143690   -0.2735270109    0.1324838322
H        2.8463156341    2.1632747185    1.6449719229
H        1.6922914639    1.9153001586    2.9785395904
H        1.9826996549    3.5745601992    2.3397481479
H       -2.6536220182   -1.5749666732   -3.2805415489
H       -1.5809300690   -1.1065616203   -4.6003401788
H       -3.2396632153   -0.4478849416   -4.5487680395
H        1.3878967966    2.3802431873   -1.6987830932
H        0.5549919229    1.9405939578   -3.2059002261
H        3.3855042389   -1.7627697063   -1.4514066358
28   
torsion grid (120,)
H       -1.1682869764    1.8425634636   -1.2213133515
C       -0.4745818290    1.0189594579   -1.3754123834
C       -0.1847702008    0.2304805007   -0.0901440477
O        0.3623318516    0.9218147029    1.0562116094
C        0.6467568261    2.2444008308    1.0942617343
C        1.7500350565    2.5139801609    2.0815729770
O        0.0749755648    3.0959416455    0.4351254114
O       -1.1441965923   -0.0137814495   -2.1834845515
C       -2.0196656969    0.3832602939   -3.1196743872
C       -2.4961638712   -0.8032134016   -3.9321880149
O       -2.3780250403    1.5336742600   -3.3093344802
C        0.7542225398    1.5214741452   -2.1361915994
O        1.7024127207    0.4950813012   -2.3906275275
P        3.1081320948    0.3981178333   -1.4767296949
O        4.2186560912    0.0243565173   -2.4121902027
O        2.7662128754   -0.9749896552   -0.5736904434
O        3.1140384221    1.5644109601   -0.5271987363
H        0.5598563236   -0.5278329183   -0.3375141480
H       -1.1127754185   -0.2412184443    0.2445818025
H        2.6756236495    2.2674942347    1.5476930747
H        1.6659011784    1.8646934157    2.9569551070
H        1.7434328124    3.5667091790    2.3702457389
H       -2.7726153137   -1.6341131068   -3.2776460034
H       -1.6752165201   -1.1464556460   -4.5699307201
H       -3.3420649794   -0.5071693137   -4.5537010356
H        1.2056530742    2.3409706745   -1.5759058136
H        0.4135431774    1.9052506936   -3.1045634598
H        3.1961449476   -1.7081797454   -1.0422815203
28   
torsion grid (135,)
H       -0.9789914734    1.8308576683   -1.2683985945
C       -0.2922009083    1.0105267682   -1.4627922108
C        0.0254606816    0.1853452290   -0.2082886673
O        0.7522207391    0.8205222029    0.8652762228
C        0.8822542318    2.1586741863    0.9971024798
C        2.0881485027    2.4808986668    1.8367180637
O        0.1283022872    2.9803453888    0.5006467338
O       -0.9848236895    0.0057198343   -2.2840984943
C       -1.8770588603    0.4351489973   -3.1905262334
C       -2.3876311830   -0.7265580459   -4.0177973324
O       -2.2245445392    1.5938601502   -3.3452806580
C        0.9247363013    1.5346770522   -2.2245988897
O        1.8612599624    0.5127589743   -2.5279874003
P        3.3250207901    0.4306155276   -1.7078906391
O        4.3526034127   -0.0357868125   -2.6955365516
O        3.0150545120   -0.8724936523   -0.6970386253
O        3.4338109679    1.6579698676   -0.8455116968
H        0.6884325706   -0.6208526597   -0.5254479489
H       -0.9067585403   -0.2133380413    0.2035090538
H        2.9512073828    2.3293539932    1.1752923681
H        2.1754036484    1.7892862303    2.6790118176
H        2.0367328438    3.5153356725    2.1810705650
H       -2.6691462295   -1.5644845813   -3.3743592572
H       -1.5836157730   -1.0727168527   -4.6751406282
H       -3.2380371520   -0.4033335766   -4.6192352673
H        1.3930556228    2.3326831677   -1.6449861277
H        0.5698960612    1.9586668935   -3.1710556811
H        3.4211811127   -1.6371992627   -1.1355884381
28   
torsion grid (150,)
H       -0.7863339539    1.9444297426   -1.2166732069
C       -0.1252541236    1.1006734754   -1.4011810556
C        0.1121332058    0.2529542915   -0.1445832131
O        0.9440214601    0.8284121167    0.8801922260
C        0.9668289350    2.1548100102    1.1269616149
C        2.2044912875    2.5103642536    1.9043588430
O        0.1097508139    2.9409909662    0.7523283289
O       -0.8249644904    0.1417442729   -2.2661213086
C       -1.6590112133    0.6246951546   -3.2012637166
C       -2.1848425420   -0.4996791847   -4.0691539173
O       -1.9474379697    1.8001393617   -3.3498490546
C        1.1420909991    1.5938381815   -2.0954120028
O        2.0441305449    0.5424763802   -2.3942096735
P        3.4965543800    0.4008165504   -1.5608987317
O        4.5024261871   -0.1369854040   -2.5351447532
O        3.1155912662   -0.8663611537   -0.5304929964
O        3.6672023320    1.6406843510   -0.7266829014
H        0.6770394867   -0.6244988966   -0.4607271735
H       -0.8510402604   -0.0327386513    0.2909126668
H        3.0446127127    2.3889879007    1.2069500439
H        2.3542337369    1.8103835873    2.7314303801
H        2.1328740242    3.5361498071    2.2697136809
H       -2.5219107544   -1.3379194219   -3.4535291811
H       -1.3715929368   -0.8645576153   -4.7047033038
H       -2.9993412451   -0.1311785355   -4.6937888246
H        1.6215677860    2.3524012916   -1.4711878697
H        0.8451236900    2.0673350346   -3.0385317944
H        3.5072918616   -1.6519379111   -0.9446798076
28   
torsion grid (165,)
H       -0.5908899795    1.8786047219   -1.3223546831
C        0.0254009042    0.9964266438   -1.4861244789
C        0.2154293229    0.1820853566   -0.2006641644
O        1.1644234017    0.7268585828    0.7297638793
C        1.1164103362    2.0311489561    1.0668606662
C        2.3851476455    2.4222274630    1.7740393110
O        0.1804256444    2.7724943175    0.8037790111
O       -0.7236134459    0.0602015112   -2.3314861439
C       -1.5276925110    0.5692192540   -3.2796836441
C       -2.1223331600   -0.5426676330   -4.1186264470
O       -1.7435358519    1.7559294844   -3.4580881278
C        1.3216068294    1.4122522808   -2.1747850850
O        2.1821261076    0.3161221767   -2.4233650490
P        3.6454974675    0.1748431578   -1.6065302090
O        4.6214660250   -0.4278057733   -2.5740231564
O        3.2518406605   -1.0395901010   -0.5209715852
O        3.8632240512    1.4466905523   -0.8330847137
H        0.6582645275   -0.7741841985   -0.4785518613
H       -0.7517831600    0.0388086417    0.2927326887
H        3.1995874208    2.2988074536    1.0470184577
H        2.5823971511    1.7371643039    2.6042717890
H        2.3102406155    3.4503599245    2.1316364142
H       -2.5099436401   -1.3423632562   -3.4818353140
H       -1.3341469207   -0.9732848083   -4.7445315688
H       -2.9132995898   -0.1407257995   -4.7527998148
H        1.8230255239    2.1687085021   -1.5636391552
H        1.0598957852    1.8720991244   -3.1352706902
H        3.6276271299   -1.8472269110   -0.9066312668
28   
torsion grid (180,)
H       -0.6363142100    2.1387093687   -1.0101011326
C        0.0756474577    1.3200008933   -1.1137851317
C        0.2101006498    0.5262371132    0.1898782223
O        1.0716074113    1.1559829791    1.1462131246
C        0.7381664293    2.3706159631    1.6249039193
C        1.8867671515    2.9376352170    2.4141106976
O       -0.3348424544    2.9164813507    1.4087430655
O       -0.4924063963    0.3326474094   -2.0359550321
C       -1.2399416405    0.7813543592   -3.0586266890
C       -1.6491415373   -0.3672300444   -3.9568020580
O       -1.5402416719    1.9470189046   -3.2522216407
C        1.3915754640    1.8715878490   -1.6515735666
O        2.3933594460    0.8782943026   -1.7529888771
P        3.7950774715    0.9823721926   -0.8257420108
O        4.9275142244    0.5287064592   -1.7007327142
O        3.5139605035   -0.2653016659    0.2544875467
O        3.7527649712    2.2861316141   -0.0752234788
H        0.7053033027   -0.4206819502   -0.0222478363
H       -0.7797083124    0.3552314078    0.6254344167
H        2.7525195534    2.9805333533    1.7391465690
H        2.1493948596    2.2576157103    3.2308123881
H        1.6196944061    3.9200264827    2.8065182457
H       -2.0402915327   -1.1992457449   -3.3650774637
H       -0.7662589630   -0.7308495080   -4.4922052753
H       -2.3956130984   -0.0238078101   -4.6738162194
H        1.7222062482    2.6890754377   -1.0029633155
H        1.2025421883    2.2866601305   -2.6492802600
H        4.0586145098   -0.9993716084   -0.0722603549
