19   
torsion grid (-165,)
C        0.0501492112    2.1799192669   -0.4697466263
C        0.8869240827    0.2508879480    1.0395594263
C        0.4386328884   -1.1556191593    1.4407755743
C       -0.5578560018   -0.2317568276   -0.8826364327
C       -0.2457690866    0.8391612083    0.1898555145
C       -0.8712772241    4.4335918093   -1.8615488328
S        1.5540779662    2.8078018369   -0.6802703121
S       -0.4315985329   -1.8614561963   -0.0311472378
S       -1.4393853792    2.9194662257   -1.0366349456
H        1.0941797204    0.8724666532    1.9160725709
H        1.8002342925    0.2049442945    0.4419627554
H        1.2841368357   -1.7970590955    1.6985556442
H       -0.2538520533   -1.1318251898    2.2867413357
H       -1.5595107852   -0.1160982609   -1.2991855393
H        0.1734976668   -0.1763494691   -1.6935183602
H       -1.1381599886    0.9507940007    0.8186312351
H       -1.7711935755    4.9284015215   -2.2341400184
H       -0.2028862684    4.1877885196   -2.6883025247
H       -0.3496193500    5.0784794750   -1.1525455164
19   
torsion grid (-150,)
C        0.0492222213    2.1381455682   -0.5566530350
C        0.8414453035    0.2856819998    1.0613879692
C        0.4098076089   -1.1212746105    1.4812494974
C       -0.4707923751   -0.2957378412   -0.9249065797
C       -0.2562590907    0.8145687389    0.1286240245
C       -0.8812752947    4.4829667389   -1.7766899424
S        1.5506305163    2.6182051542   -1.0234787083
S       -0.3839341904   -1.8894167481   -0.0039663197
S       -1.4360409947    3.0222196440   -0.8523084403
H        0.9780616654    0.9392697425    1.9289829317
H        1.7873063126    0.2505294730    0.5159739425
H        1.2587812413   -1.7334366693    1.7932933761
H       -0.3191627408   -1.0924235629    2.2957255164
H       -1.4415248463   -0.2105832050   -1.4166993334
H        0.3194900798   -0.2553225146   -1.6784083951
H       -1.1867818608    0.9150892563    0.7011037116
H       -1.7801773259    5.0664224564   -1.9887252242
H       -0.3955732147    4.1813810547   -2.7062429274
H       -0.1824985968    5.0672538859   -1.1757843539
19   
torsion grid (-135,)
C        0.0206883242    2.0790588996   -0.6728572023
C        0.7870201312    0.3374593318    1.0574309623
C        0.3937108880   -1.0655396790    1.5255696459
C       -0.3969213121   -0.3963284755   -0.9602143751
C       -0.2823990050    0.7711052618    0.0417322269
C       -0.8614051769    4.5428217475   -1.6690948906
S        1.4764998259    2.4432276939   -1.3459645482
S       -0.3044223290   -1.9357320792    0.0486161671
S       -1.4048553115    3.0938304690   -0.7195232505
H        0.8478042612    1.0376350714    1.8970734105
H        1.7594953651    0.3192468232    0.5594194654
H        1.2521491785   -1.6258784363    1.9025675952
H       -0.3705591730   -1.0286994984    2.3066534578
H       -1.3429156918   -0.3745883901   -1.5053326626
H        0.4313523991   -0.3634886615   -1.6709113209
H       -1.2427015930    0.8596343708    0.5647206182
H       -1.7252724064    5.2087525706   -1.7290752314
H       -0.5428698807    4.2418981641   -2.6686087171
H       -0.0336740758    5.0391233774   -1.1597236405
19   
torsion grid (-120,)
C       -0.0305591111    2.0136997193   -0.7976047921
C        0.7238442297    0.3999949901    1.0338723590
C        0.3811142667   -0.9936067735    1.5658136759
C       -0.3285801019   -0.5068826017   -0.9875205538
C       -0.3177523627    0.7178473443   -0.0555420728
C       -0.8173499376    4.5925865015   -1.5491158003
S        1.3488468216    2.2941390917   -1.6487708870
S       -0.2184111654   -1.9778291891    0.1172521654
S       -1.3576137846    3.1374335778   -0.6070981839
H        0.7088042857    1.1490131642    1.8323555538
H        1.7178749456    0.4048623775    0.5786846993
H        1.2514457487   -1.4876588889    2.0034751934
H       -0.4124653806   -0.9523477939    2.3167976448
H       -1.2474243349   -0.5628122288   -1.5754168393
H        0.5303309385   -0.4760477162   -1.6599643166
H       -1.3021900461    0.7868229691    0.4239156292
H       -1.6210511853    5.3273334483   -1.4623013087
H       -0.6569520611    4.3262265450   -2.5952194334
H        0.1088126529    4.9907640243   -1.1311350229
19   
torsion grid (-105,)
C       -0.0958915527    1.9498804578   -0.9165002274
C        0.6555244870    0.4661465681    1.0025416135
C        0.3658684401   -0.9135193823    1.5980272356
C       -0.2585777735   -0.6072121890   -1.0072394516
C       -0.3529544422    0.6626090129   -0.1491286387
C       -0.7571575328    4.6220803836   -1.4283800706
S        1.1716320233    2.1740355879   -1.9402299114
S       -0.1155433242   -2.0067679867    0.1842208379
S       -1.2912859589    3.1580440726   -0.4967284684
H        0.5644850561    1.2563248856    1.7545571036
H        1.6675073866    0.5005654286    0.5884298275
H        1.2420072599   -1.3327538032    2.0978023445
H       -0.4603606717   -0.8751173236    2.3131099174
H       -1.1490715300   -0.7466568754   -1.6241513556
H        0.6222189063   -0.5675487266   -1.6493059788
H       -1.3575708567    0.7030118340    0.2906080374
H       -1.4748813217    5.4111143873   -1.1924959215
H       -0.7632321556    4.4108231459   -2.4989825998
H        0.2480079788    4.9184790836   -1.1236765836
19   
torsion grid (-90,)
C       -0.1654239043    1.8997588917   -1.0080577072
C        0.5843807665    0.5230873174    0.9825167127
C        0.3472321999   -0.8477638309    1.6195252612
C       -0.1822842634   -0.6769804720   -1.0206045163
C       -0.3810528040    0.6158038445   -0.2216742451
C       -0.6897012993    4.6344552673   -1.3296282906
S        0.9384478595    2.0813630532   -2.2126481575
S       -0.0098018288   -2.0193789050    0.2322416147
S       -1.1884595661    3.1748167108   -0.3718041539
H        0.4143799426    1.3336344054    1.6972927014
H        1.6115710183    0.6006387644    0.6122602724
H        1.2226641794   -1.1969379338    2.1716461219
H       -0.5100272542   -0.8283975991    2.2979539884
H       -1.0387139074   -0.8900889678   -1.6639124693
H        0.7174544850   -0.6162406133   -1.6332211542
H       -1.4032003211    0.6181362380    0.1784210638
H       -1.3027275459    5.4606684333   -0.9621667839
H       -0.8731033509    4.4695228154   -2.3925599095
H        0.3690900124    4.8474411416   -1.1731026388
19   
torsion grid (-75,)
C       -0.2208733160    1.8760074959   -1.0556836136
C        0.5195196719    0.5534522566    0.9924651858
C        0.3163899533   -0.8204230204    1.6355267442
C       -0.0935687029   -0.7010548790   -1.0273595656
C       -0.3904872041    0.5896608059   -0.2588433678
C       -0.6296297783    4.6418836807   -1.2805128899
S        0.6375191506    2.0111341799   -2.4507141912
S        0.0560548031   -2.0211293717    0.2513400737
S       -1.0167060443    3.2101654980   -0.2332205986
H        0.2824419053    1.3597184754    1.6916067312
H        1.5593746445    0.6756346616    0.6709726565
H        1.1840537385   -1.1269294383    2.2239172038
H       -0.5654463045   -0.8282671623    2.2819297658
H       -0.8983181383   -0.9563852204   -1.7195769467
H        0.8370971636   -0.6137342851   -1.5880497184
H       -1.4293560679    0.5469979451    0.0940421850
H       -1.1116512078    5.4995068183   -0.8054253121
H       -1.0252882051    4.4933999736   -2.2865047476
H        0.4495983565    4.7939001474   -1.3334318843
19   
torsion grid (-60,)
C       -0.2563033363    1.8686640220   -1.0722396579
C        0.4591761571    0.5649531400    1.0244366375
C        0.2822396300   -0.8221921249    1.6453536526
C       -0.0010465608   -0.6937639061   -1.0324990621
C       -0.3868532215    0.5784868641   -0.2709652677
C       -0.5779591084    4.6475800508   -1.2677575023
S        0.2909448574    1.9540287140   -2.6197366057
S        0.1481301341   -2.0187418844    0.2409611743
S       -0.7749766125    3.2543918372   -0.1202710604
H        0.1575313368    1.3485400982    1.7242009286
H        1.5081101206    0.7356098601    0.7587617688
H        1.1287187860   -1.0969157621    2.2785705626
H       -0.6321558634   -0.8722868164    2.2429646107
H       -0.7586327272   -0.9780835424   -1.7643307714
H        0.9497851990   -0.5640151108   -1.5504169920
H       -1.4412288604    0.4930235363    0.0252419572
H       -0.9030067849    5.5342518791   -0.7183139262
H       -1.1978941947    4.5011736662   -2.1537579839
H        0.4661454673    4.7488340401   -1.5677247527
19   
torsion grid (-45,)
C       -0.3057647584    1.8598173627   -1.0856521249
C        0.3923498326    0.5765778872    1.0552817100
C        0.2578057607   -0.8267592976    1.6498899308
C        0.0880384496   -0.6768555464   -1.0363530444
C       -0.3884445812    0.5690173382   -0.2781326202
C       -0.5168295753    4.6476293700   -1.2640442617
S       -0.0820974463    1.9069789135   -2.7141050067
S        0.2575590105   -2.0079136552    0.2270851778
S       -0.5316913985    3.2787302860   -0.0715008711
H        0.0166560249    1.3276079270    1.7553195294
H        1.4431204829    0.8059284181    0.8484436590
H        1.0850452939   -1.0659017570    2.3217759416
H       -0.6810440450   -0.9327607503    2.2004799528
H       -0.6240094869   -0.9911214541   -1.7994724409
H        1.0505695034   -0.4919984980   -1.5167052004
H       -1.4523587489    0.4328702742   -0.0370976641
H       -0.6724986340    5.5554782871   -0.6763072208
H       -1.3182222805    4.5253844034   -1.9945821530
H        0.4425410147    4.6908290523   -1.7818455833
19   
torsion grid (-30,)
C       -0.0531424563    1.7566004271   -1.1973230398
C        0.8267391812    0.3532962215    0.8204286498
C        0.3775161020   -0.8549377565    1.6439082258
C       -0.6321086860   -0.7105071256   -0.8507981767
C       -0.3035032873    0.6386625468   -0.1898660111
C        1.0264328606    4.2403734226   -1.9008702033
S       -0.7515197921    1.7916502068   -2.6872143009
S       -0.5162263430   -1.9794169079    0.4809531479
S        0.9993193735    3.0121338284   -0.5644734019
H        1.0301361045    1.2061618530    1.4742368346
H        1.7468516548    0.1186815781    0.2750167682
H        1.2234772308   -1.3864299969    2.0852361366
H       -0.3029112550   -0.5543434729    2.4456155217
H       -1.6334972129   -0.7236532092   -1.2790353814
H        0.0868946162   -0.9334502970   -1.6423312875
H       -1.1870308965    0.9562593820    0.3822660910
H        1.6692855950    5.0502166077   -1.5476300282
H        0.0193760538    4.6117945926   -2.0976606643
H        1.4348112818    3.8010541862   -2.8123541064
19   
torsion grid (-15,)
C       -0.1354208242    1.7991602343   -1.1433404735
C        0.7723792546    0.3959309212    0.8799692293
C        0.3652235853   -0.8669160085    1.6420349328
C       -0.5340253892   -0.6984388357   -0.8904507887
C       -0.3323605745    0.6455776337   -0.1640114949
C        1.0790063475    4.1816268765   -1.9555490702
S       -1.0688782598    1.9740574138   -2.4890469191
S       -0.3830513561   -2.0088272996    0.3961074121
S        1.1272280981    2.9142725967   -0.6571801336
H        0.8940161555    1.2374582826    1.5686284644
H        1.7282970559    0.2318706968    0.3719237889
H        1.2212766043   -1.3547024943    2.1132537350
H       -0.3765369207   -0.6408343637    2.4131924721
H       -1.5124043989   -0.7600461333   -1.3645785806
H        0.2353744038   -0.8356930984   -1.6546827749
H       -1.2606051052    0.8751441657    0.3762140968
H        1.8542258523    4.9060162464   -1.6945957868
H        0.1000058607    4.6630935521   -1.9804359780
H        1.2871497352    3.7353957009   -2.9293473566
19   
torsion grid (0,)
C       -0.2099714702    1.8465980568   -1.0715237048
C        0.7099070987    0.4337886442    0.9480951503
C        0.3556043525   -0.8879810006    1.6340637637
C       -0.4324094919   -0.6609668652   -0.9288629050
C       -0.3654203256    0.6577105468   -0.1292036227
C        1.1210017666    4.1084413326   -2.0261208115
S       -1.3241296376    2.1674014974   -2.2420878311
S       -0.2443790145   -2.0198751043    0.3011890307
S        1.2233305787    2.8057710117   -0.7663583098
H        0.7436560909    1.2524616201    1.6737761592
H        1.6970218912    0.3510156204    0.4821354470
H        1.2195758722   -1.3375652131    2.1281974688
H       -0.4381208603   -0.7499839526    2.3735088382
H       -1.3824562693   -0.7623384455   -1.4522806992
H        0.3808569867   -0.7043475717   -1.6587117510
H       -1.3319122744    0.7925674731    0.3701836480
H        1.9982254412    4.7416668563   -1.8738253696
H        0.2052547655    4.6880017030   -1.8980215359
H        1.1352646244    3.6717798776   -3.0260481913
19   
torsion grid (15,)
C       -0.2659562200    1.8943730829   -0.9922712919
C        0.6488265370    0.4613495510    1.0145938563
C        0.3420677086   -0.9084226937    1.6249342511
C       -0.3303364429   -0.6130853368   -0.9642882000
C       -0.3896392967    0.6663532735   -0.1005532544
C        1.1445656130    4.0335305429   -2.1002538963
S       -1.5038937233    2.3644738136   -1.9715836290
S       -0.0999804638   -2.0149350222    0.2109765545
S        1.2889043585    2.6939124377   -0.8837321436
H        0.5991867594    1.2524407311    1.7695774339
H        1.6604667036    0.4527338257    0.5968315700
H        1.2020469492   -1.3251359688    2.1536067207
H       -0.5025488003   -0.8536629211    2.3173322892
H       -1.2507028971   -0.7490380652   -1.5324787783
H        0.5142120496   -0.5684533611   -1.6576929070
H       -1.3846833427    0.7132785672    0.3530925458
H        2.0973421481    4.5674242298   -2.0721567412
H        0.3250917511    4.7022266055   -1.8317101330
H        0.9659307335    3.6247827947   -3.0961194724
19   
torsion grid (30,)
C       -0.2985849526    1.9348841119   -0.9229358931
C        0.5883023943    0.4806594965    1.0698515703
C        0.3270780455   -0.9239057370    1.6184261341
C       -0.2366962994   -0.5757639177   -0.9925933102
C       -0.4043649016    0.6666421080   -0.0899932215
C        1.1546401585    3.9693435568   -2.1687368249
S       -1.6096720862    2.5667488651   -1.6915224786
S        0.0219262536   -2.0028118200    0.1478074558
S        1.3313007077    2.5748692685   -1.0196810133
H        0.4531000712    1.2448394667    1.8419607674
H        1.6192190778    0.5424661974    0.7080954097
H        1.1803638471   -1.3130192459    2.1781282356
H       -0.5541109176   -0.9395434005    2.2656861166
H       -1.1256685011   -0.7429890089   -1.6022977979
H        0.6313577432   -0.4651376001   -1.6476850115
H       -1.4200313357    0.6466882828    0.3147521531
H        2.1511967296    4.4069293894   -2.2634982088
H        0.4533678010    4.7032777963   -1.7685480427
H        0.7981762895    3.6199682778   -3.1391112660
19   
torsion grid (45,)
C       -0.3061005996    1.9560962546   -0.8839115868
C        0.5319607440    0.4942943745    1.1017857249
C        0.3015708740   -0.9253692645    1.6232419239
C       -0.1462270576   -0.5721547930   -1.0121193024
C       -0.4069070168    0.6517373676   -0.1081454404
C        1.1503987869    3.9336717355   -2.2214468394
S       -1.6436724799    2.7632799882   -1.3990847621
S        0.1081280243   -1.9994122775    0.1299246234
S        1.3501270391    2.4452723937   -1.2012246258
H        0.3211146128    1.2454372922    1.8697892299
H        1.5759794049    0.6082164582    0.7947395777
H        1.1426120364   -1.2873549083    2.2186530579
H       -0.6076988626   -0.9835420418    2.2277321399
H       -0.9978915993   -0.7699248199   -1.6654934103
H        0.7470089999   -0.4276039708   -1.6238814834
H       -1.4382158317    0.5880764673    0.2480865336
H        2.1620762101    4.2778271022   -2.4486862951
H        0.6029204916    4.7000480302   -1.6706221987
H        0.6137163483    3.6955506986   -3.1412320926
19   
torsion grid (60,)
C       -0.3022630230    1.9553254356   -0.8802123549
C        0.4755205506    0.5096182625    1.1094443572
C        0.2664220700   -0.9109036303    1.6378754047
C       -0.0574559928   -0.5973486141   -1.0210339574
C       -0.4070095907    0.6252124366   -0.1497876617
C        1.1389546315    3.9205022593   -2.2563493494
S       -1.6057718771    2.9352617238   -1.0953413190
S        0.1383085003   -2.0068640143    0.1520352320
S        1.3242574290    2.3079785792   -1.4431016335
H        0.2008088361    1.2615943399    1.8560347289
H        1.5269354680    0.6611260985    0.8472782771
H        1.0998259063   -1.2445292614    2.2600443287
H       -0.6573189041   -0.9874207192    2.2175851036
H       -0.8552437714   -0.8211788258   -1.7322898031
H        0.8737208510   -0.4459579499   -1.5705256353
H       -1.4506984147    0.5306120248    0.1597433891
H        2.1323241867    4.1838167163   -2.6270651919
H        0.7887313889    4.6679279775   -1.5427565009
H        0.4308518802    3.8493732479   -3.0834726401
19   
torsion grid (75,)
C       -0.2939864032    1.9546620904   -0.8753538116
C        0.4139528890    0.5240934033    1.1160150854
C        0.2312116496   -0.8992369579    1.6483718807
C        0.0324143573   -0.6150071355   -1.0255244639
C       -0.4055589371    0.6009740147   -0.1905156842
C        1.1184651682    3.9086390900   -2.2923901888
S       -1.4998868470    3.0700321142   -0.7821514710
S        0.1717522990   -2.0117591294    0.1694205846
S        1.2421843239    2.2007569108   -1.6885023747
H        0.0723267278    1.2703753326    1.8396559743
H        1.4692698132    0.7163578728    0.8991884733
H        1.0570232868   -1.2031531200    2.2953494051
H       -0.7051326061   -0.9985392184    2.2035255255
H       -0.7048410322   -0.8632196884   -1.7920391382
H        0.9987646111   -0.4536783830   -1.5072721223
H       -1.4599291273    0.4761306130    0.0684806226
H        2.0589532288    4.1106982859   -2.8102738997
H        0.9868480101    4.5991252997   -1.4577994754
H        0.2770687130    4.0068946921   -2.9800801475
19   
torsion grid (90,)
C       -0.2541962838    1.9723830844   -0.8400379322
C        0.3571867013    0.5203776146    1.1449750308
C        0.1758095135   -0.9112662640    1.6552176232
C        0.1266661253   -0.6058719882   -1.0234059589
C       -0.3829044790    0.5937030804   -0.2094397671
C        1.0809061294    3.8980102270   -2.3601245490
S       -1.3196228578    3.1747122991   -0.4811584192
S        0.2071154906   -2.0119295080    0.1664060221
S        1.1401277845    2.1455206084   -1.8885948586
H       -0.0441549105    1.2530406554    1.8503885658
H        1.4188183140    0.7387021494    0.9884182903
H        0.9744358706   -1.2063793165    2.3392544038
H       -0.7845847489   -1.0316427587    2.1630252159
H       -0.5519067106   -0.8599821227   -1.8403702250
H        1.1226150512   -0.4312700253   -1.4353653104
H       -1.4481561134    0.4472160147   -0.0104680657
H        1.9357312635    4.0581822435   -3.0213218065
H        1.1582048264    4.5330140859   -1.4761183253
H        0.1488091585    4.1176260076   -2.8831751597
19   
torsion grid (105,)
C       -0.1751002598    2.0040602435   -0.7832128689
C        0.3095116845    0.4958515296    1.1959097489
C        0.0971865930   -0.9475285248    1.6576035528
C        0.2316457593   -0.5756271237   -1.0097147367
C       -0.3333981315    0.6038627373   -0.2047810046
C        1.0171058164    3.8946411918   -2.4556454855
S       -1.0732994238    3.2617144055   -0.2139596345
S        0.2288186815   -2.0114181013    0.1477400222
S        1.0354324749    2.1267351679   -2.0428867219
H       -0.1399343418    1.2119047111    1.8878888515
H        1.3794068872    0.7182264003    1.1163824001
H        0.8482940448   -1.2601420161    2.3861713423
H       -0.8951152315   -1.0794547120    2.0966440601
H       -0.3849215563   -0.8125750026   -1.8790950349
H        1.2555247390   -0.3921773285   -1.3424301028
H       -1.4100220324    0.4494482774   -0.0808633747
H        1.7575041713    4.0238581778   -3.2485562240
H        1.2851031224    4.4918765414   -1.5826455492
H        0.0271571277    4.1908895124   -2.8064444658
19   
torsion grid (120,)
C       -0.0743847903    2.0360512292   -0.7256167980
C        0.2638815694    0.4654402542    1.2503375450
C        0.0105234137   -0.9883321497    1.6523285295
C        0.3402232945   -0.5404865713   -0.9856731083
C       -0.2721984410    0.6218662421   -0.1889398537
C        0.9368374292    3.8925639899   -2.5507863817
S       -0.7722363353    3.3350118816    0.0092078632
S        0.2533013351   -2.0089255158    0.1268622535
S        0.9152325890    2.1184228727   -2.1677901322
H       -0.2273029000    1.1648309804    1.9296719407
H        1.3382521782    0.6810840637    1.2538796850
H        0.7019416516   -1.3270186265    2.4268192773
H       -1.0131998062   -1.1262479126    2.0101932481
H       -0.2146314459   -0.7545113530   -1.9012088304
H        1.3851769279   -0.3501161582   -1.2409800978
H       -1.3574236059    0.4712026764   -0.1506489927
H        1.5408992805    3.9954890752   -3.4553005442
H        1.3836806842    4.4533005020   -1.7282648660
H       -0.0776729037    4.2545206067   -2.7259859630
19   
torsion grid (135,)
C        0.0310435276    2.0591679006   -0.6804093090
C        0.2126177592    0.4400273450    1.2963214730
C       -0.0732645707   -1.0223230214    1.6397197125
C        0.4491525446   -0.5088614426   -0.9532356089
C       -0.2123014015    0.6399579662   -0.1720451764
C        0.8484771334    3.8892897163   -2.6301015025
S       -0.4211258494    3.3867357514    0.1835113429
S        0.2834288605   -2.0044557597    0.1120697161
S        0.7651377890    2.1122082890   -2.2709198543
H       -0.3223616958    1.1216892549    1.9595508784
H        1.2838709620    0.6515724099    1.3853584317
H        0.5570062150   -1.3831050724    2.4553005918
H       -1.1212291963   -1.1663698181    1.9160126424
H       -0.0406300070   -0.7035966334   -1.9091292355
H        1.5085307986   -0.3094548625   -1.1317888424
H       -1.2997686135    0.4969653006   -0.2245819902
H        1.2990740716    3.9723568864   -3.6219535170
H        1.4655688047    4.3979668012   -1.8877432174
H       -0.1523270071    4.3243750758   -2.6278317610
19   
torsion grid (150,)
C        0.1304987628    2.0688626070   -0.6513914530
C        0.1532172465    0.4242805821    1.3287505926
C       -0.1488914994   -1.0458205401    1.6214375341
C        0.5540141531   -0.4822014423   -0.9156396341
C       -0.1640385178    0.6533531197   -0.1594569907
C        0.7590332134    3.8859315692   -2.6860807713
S       -0.0192589972    3.4005855641    0.3041471719
S        0.3370681813   -1.9969408153    0.1108376431
S        0.5752611213    2.1119349889   -2.3490959304
H       -0.4294621502    1.0879037847    1.9696953099
H        1.2129842811    0.6393024658    1.5014593004
H        0.4171144787   -1.4175786630    2.4781845504
H       -1.2142961198   -1.2022873769    1.8110139830
H        0.1284150936   -0.6677081757   -1.9033480014
H        1.6190727766   -0.2630726553   -1.0254143102
H       -1.2454330504    0.5149239442   -0.3000370397
H        1.0313510353    3.9617717045   -3.7414834773
H        1.5440249284    4.3121348592   -2.0593607188
H       -0.1797748123    4.4087705661   -2.4961129843
19   
torsion grid (165,)
C        0.2200792897    2.0636025966   -0.6395289079
C        0.0875653715    0.4191673391    1.3460055007
C       -0.2152083439   -1.0579261458    1.6023502596
C        0.6541741057   -0.4619239901   -0.8735989122
C       -0.1295420930    0.6590316622   -0.1552415027
C        0.6721618188    3.8875804216   -2.7184494570
S        0.4147403325    3.3558629314    0.3582898490
S        0.4107088129   -1.9866518192    0.1306469235
S        0.3507968402    2.1309786198   -2.3917228006
H       -0.5470587507    1.0675306987    1.9538236264
H        1.1279859135    0.6459877199    1.5977998527
H        0.2851589945   -1.4281407795    2.4996690181
H       -1.2897424643   -1.2336315592    1.7032016148
H        0.2918680280   -0.6477119782   -1.8858847252
H        1.7176876268   -0.2132112792   -0.9208592788
H       -1.1962869107    0.5151293170   -0.3772584781
H        0.7541855906    3.9781023004   -3.8041974887
H        1.6019305971    4.1993850775   -2.2401367500
H       -0.1503046343    4.5009849541   -2.3468035693
19   
torsion grid (180,)
C        0.0332662913    2.2075189349   -0.4129449391
C        0.9251300964    0.2283092900    0.9927199206
C        0.4749360377   -1.1730529533    1.4083374934
C       -0.6530926706   -0.2057450156   -0.8348771037
C       -0.2458242376    0.8490148677    0.2210503853
C       -0.8372922035    4.4031405129   -1.9246936186
S        1.4719676455    2.9967670803   -0.3262604753
S       -0.5032625696   -1.8460677785   -0.0095612322
S       -1.3861343915    2.8038543802   -1.2636064716
H        1.2040198510    0.8341359028    1.8590340086
H        1.7983544124    0.1692060948    0.3375960671
H        1.3219073066   -1.8338517380    1.6049102597
H       -0.1601740764   -1.1435857665    2.2980473594
H       -1.6784286767   -0.0728563985   -1.1827212935
H        0.0197294549   -0.1569086128   -1.6956239859
H       -1.0916844891    0.9751299772    0.9099429760
H       -1.6952355454    4.8144184242   -2.4617494894
H        0.0048869549    4.2643313668   -2.6044104291
H       -0.5423447723    5.0697799924   -1.1127117215
