16   
torsion grid (-165,)
C        0.7277700520    1.2938794877   -2.4054389897
C       -0.1261993190    0.1670694001   -1.9952248323
C       -0.0390006885   -0.4549376065   -0.6047363452
C       -0.6069455754    0.4347923804    0.5071203057
C       -0.4748043954   -0.1945145570    1.8811191176
O       -0.6728511944    1.4959378786   -2.1275351214
F        0.8853242214   -0.3855841439    2.2024562955
H        1.4058130463    1.7350348959   -1.6738527074
H        1.0148547533    1.4162392873   -3.4494575246
H       -0.4615368432   -0.5030800959   -2.7876045007
H       -0.5561795259   -1.4217409788   -0.6142187140
H        1.0092066544   -0.6827791780   -0.3817337394
H       -0.1069067932    1.4083766453    0.5101495753
H       -1.6686812279    0.6357931577    0.3231158325
H       -0.9525584192   -1.1797366248    1.9276283968
H       -0.8980300150    0.4488583393    2.6590758441
16   
torsion grid (-150,)
C        1.2181144241   -1.2541179217   -2.6035649377
C        0.4479635482   -0.0056094848   -2.4508894541
C       -0.3294778603    0.3314976080   -1.1811406219
C        0.5124293078    1.0959238289   -0.1490803701
C       -0.2751444896    1.4525880254    1.0967334700
O        1.8935481038   -0.0110370861   -2.3626968013
F       -1.3563269971    2.2974791709    0.7699472961
H        1.2434441210   -1.9598129019   -1.7719220613
H        1.3765051698   -1.6867351562   -3.5915948886
H        0.0940876499    0.4696371334   -3.3659159320
H       -1.1913464553    0.9492699162   -1.4494702985
H       -0.7244492163   -0.5848866540   -0.7256185815
H        1.3773762484    0.4955570216    0.1537931376
H        0.9145796777    2.0107535745   -0.5973570431
H        0.3428974821    1.9928021584    1.8209490757
H       -0.7020532884    0.5647460212    1.5772808880
16   
torsion grid (-135,)
C        1.1431570066   -1.3101247465   -2.6814135096
C        0.5212456489   -0.0008135729   -2.4041548512
C       -0.2830433908    0.2851791606   -1.1452144106
C        0.4919084135    1.1716381867   -0.1567945832
C       -0.3065342181    1.4961971860    1.0905185430
O        1.9437911040   -0.2187821053   -2.2137591450
F       -1.4725950516    2.2157305154    0.7540515165
H        1.0017847006   -2.1211098411   -1.9658568094
H        1.3320332016   -1.6202885117   -3.7096592774
H        0.3152590379    0.6449781236   -3.2584329707
H       -1.1959436823    0.8191664019   -1.4270883198
H       -0.5782177141   -0.6480841187   -0.6518770492
H        1.4169913646    0.6695089958    0.1462499441
H        0.7888528663    2.1068618506   -0.6455501324
H        0.2653198649    2.1230120745    1.7821276407
H       -0.6340227372    0.5892844130    1.6115796677
16   
torsion grid (-120,)
C        1.0814217433   -1.3477353183   -2.7502892733
C        0.6062197506   -0.0091071186   -2.3538352103
C       -0.2206336170    0.2415356035   -1.1103410873
C        0.4820412694    1.2230885523   -0.1592829702
C       -0.3287418224    1.5215746571    1.0868979654
O        1.9763697085   -0.4238955050   -2.1166750715
F       -1.5524440456    2.1319608209    0.7403327507
H        0.7990843807   -2.2088544131   -2.1438036905
H        1.2983329478   -1.5621917703   -3.7971456162
H        0.5306676703    0.7493121154   -3.1348404792
H       -1.1802895303    0.6797433783   -1.4053527680
H       -0.4224077233   -0.7009598443   -0.5886845535
H        1.4476312490    0.8066400735    0.1493031166
H        0.6942590955    2.1647563987   -0.6798043078
H        0.1956887695    2.2148374759    1.7521471587
H       -0.5758386868    0.6079457256    1.6393576189
16   
torsion grid (-105,)
C        1.0005558559   -1.3629068712   -2.8128409248
C        0.6836949985   -0.0156805262   -2.3085125210
C       -0.1581702640    0.2205889544   -1.0774669162
C        0.4743771800    1.2766935582   -0.1593206476
C       -0.3448466429    1.5474977945    1.0880490105
O        1.9821586002   -0.6100481996   -2.0779870368
F       -1.6132606891    2.0548802969    0.7377623307
H        0.6027046169   -2.2334879298   -2.2910344381
H        1.2264348573   -1.5098096983   -3.8689500742
H        0.7165530721    0.8091375465   -3.0233790365
H       -1.1540375516    0.5598189527   -1.3844207507
H       -0.2802150762   -0.7211918289   -0.5298783495
H        1.4704855713    0.9400656354    0.1521776390
H        0.6113545635    2.2182184367   -0.7050527442
H        0.1319630378    2.2956733219    1.7291994948
H       -0.5175280625    0.6329807026    1.6664809778
16   
torsion grid (-90,)
C        0.9303950859   -1.3657189295   -2.8724237599
C        0.7731146916   -0.0362792148   -2.2617542798
C       -0.0826825581    0.1955774359   -1.0407324608
C        0.4691770296    1.3201353506   -0.1549475959
C       -0.3683793492    1.5675074030    1.0856151552
O        1.9851902036   -0.7959084972   -2.0699135282
F       -1.6693499280    1.9706598176    0.7212745711
H        0.4247839565   -2.2211227253   -2.4241399800
H        1.1560071492   -1.4541904428   -3.9347827408
H        0.9109702393    0.8309350702   -2.9115927373
H       -1.1046367263    0.4333235644   -1.3580361972
H       -0.1336518381   -0.7371132472   -0.4660887303
H        1.4866805213    1.0666376115    0.1678973084
H        0.5381142467    2.2533236983   -0.7271961382
H        0.0521826516    2.3670449658    1.7037081607
H       -0.4744301983    0.6602178452    1.6907010484
16   
torsion grid (-75,)
C        0.8585133892   -1.3497227385   -2.9354231059
C        0.8610907363   -0.0686132600   -2.2136353070
C       -0.0018980105    0.1653565117   -0.9953856728
C        0.4720208968    1.3554353229   -0.1531175265
C       -0.3783730196    1.5898881805    1.0816171684
O        1.9672063700   -0.9834445827   -2.0840510795
F       -1.7033530616    1.8928889236    0.7080411773
H        0.2478088565   -2.1714030126   -2.5608433767
H        1.0846167036   -1.3766547788   -4.0008508331
H        1.1100596868    0.8241813190   -2.7920454511
H       -1.0427172405    0.3042544115   -1.3094701384
H        0.0174715794   -0.7486221530   -0.3889060856
H        1.5051187540    1.1863718667    0.1766912600
H        0.4753995239    2.2701968312   -0.7582337680
H       -0.0108990291    2.4367810605    1.6697428050
H       -0.4228177510    0.6992069077    1.7181317428
16   
torsion grid (-60,)
C        0.7924947697   -1.3167532838   -2.9925039805
C        0.9427000806   -0.1167807743   -2.1560315576
C        0.0725650073    0.1242303829   -0.9384491736
C        0.4655470592    1.3830508590   -0.1579437656
C       -0.3927044614    1.6155651394    1.0720358488
O        1.9177624222   -1.1756470745   -2.0963316051
F       -1.7371879487    1.8087009728    0.6960165935
H        0.0708180716   -2.0798097665   -2.7000438442
H        1.0389057358   -1.2802791148   -4.0531830408
H        1.3200391356    0.7815382561   -2.6500718463
H       -0.9800887472    0.1682675314   -1.2386503999
H        0.1632708020   -0.7565863388   -0.2906056136
H        1.5098517890    1.3057773599    0.1718605812
H        0.4000256440    2.2662641079   -0.8048682876
H       -0.0816197797    2.5124389128    1.6170264358
H       -0.3718262244    0.7546110790    1.7493099486
16   
torsion grid (-45,)
C        0.7405551533   -1.2613990403   -3.0523243844
C        1.0180998532   -0.1793287321   -2.0941168873
C        0.1460263349    0.0648556150   -0.8720499646
C        0.4519056803    1.3959171044   -0.1762025437
C       -0.4052558569    1.6375220460    1.0528855023
O        1.8320555793   -1.3691105109   -2.1148772396
F       -1.7648230855    1.7095635171    0.6895629017
H       -0.0950171867   -1.9346743120   -2.8592523380
H        1.0347517794   -1.1601986243   -4.0968261057
H        1.5420399824    0.6967141444   -2.4824428307
H       -0.9128845961    0.0185804173   -1.1463205762
H        0.3159141223   -0.7647794467   -0.1752980846
H        1.5032416354    1.4204650214    0.1398929964
H        0.3095411088    2.2307264767   -0.8731074829
H       -0.1541813103    2.5855718436    1.5390543911
H       -0.3119689845    0.8220765908    1.7786580903
16   
torsion grid (-30,)
C        0.6825060061   -1.1759098321   -3.1037105820
C        1.0765986740   -0.2448742196   -2.0309915125
C        0.2185266609    0.0002063315   -0.7969082664
C        0.4304482535    1.3998817742   -0.2059172675
C       -0.4201992551    1.6629663786    1.0233667116
O        1.6927508480   -1.5453767993   -2.1492888293
F       -1.7876149332    1.6102012775    0.6878289203
H       -0.2588464982   -1.7180266535   -3.0103258170
H        1.0395042987   -1.0230200635   -4.1224785478
H        1.7543374020    0.5662292996   -2.3052195359
H       -0.8416281964   -0.1308640373   -1.0343377405
H        0.4751882658   -0.7604457499   -0.0508107015
H        1.4819284887    1.5311425197    0.0828992085
H        0.2090683326    2.1680805364   -0.9567999068
H       -0.2316310942    2.6583550042    1.4379310126
H       -0.2530794403    0.9088630663    1.8004644513
16   
torsion grid (-15,)
C        0.5252721688   -0.3683521866   -2.9741880724
C        1.0147613694   -0.0282282281   -1.6277539956
C        0.3094573612   -0.4716729575   -0.3537162879
C        0.2145840525    0.6320774817    0.7116029209
C       -0.7349944375    1.7639194043    0.3598565110
O        1.6200577852   -1.0962715036   -2.3959953355
F       -0.2858474426    2.4570996979   -0.7827716095
H       -0.4033184968   -0.9318655635   -3.0723896571
H        0.7825870801    0.2647152058   -3.8236548280
H        1.6561228790    0.8477559204   -1.5363152058
H       -0.7041607261   -0.8202789969   -0.5854949326
H        0.8642509720   -1.3216390923    0.0562368105
H       -0.1442869718    0.1956525420    1.6526453751
H        1.2079403096    1.0481873930    0.9192629384
H       -0.8018372558    2.4974564348    1.1696212754
H       -1.7380260066    1.3885909105    0.1277553540
16   
torsion grid (0,)
C        0.4440531350   -0.1936088967   -2.9506340667
C        1.0663103207   -0.0376260925   -1.6269497786
C        0.3893120174   -0.4660449620   -0.3385735804
C        0.2207334674    0.6777569370    0.6742509051
C       -0.7430785931    1.7682124232    0.2398519257
O        1.4480241789   -1.1216663740   -2.5057099483
F       -0.2436465496    2.4579194781   -0.8834754721
H       -0.5651803751   -0.6013913684   -3.0173024523
H        0.7424614507    0.4583964251   -3.7714480142
H        1.8394767499    0.7245661221   -1.5234372444
H       -0.5965469680   -0.8908339934   -0.5620317443
H        0.9947529938   -1.2592972225    0.1134831959
H       -0.1606375739    0.2684297017    1.6185628860
H        1.1922893485    1.1332451153    0.9019017506
H       -0.8863924291    2.5124396695    1.0297212779
H       -1.7161363108    1.3546622850   -0.0482566383
16   
torsion grid (15,)
C        0.3965018000   -0.0966492168   -2.8761024040
C        1.1134065951   -0.1213203210   -1.5941206087
C        0.4511867402   -0.5095414819   -0.2901730218
C        0.2205787096    0.6751832572    0.6608148894
C       -0.7708149985    1.7112874706    0.1591758224
O        1.2771083961   -1.1899089083   -2.5515643548
F       -0.2487557291    2.4086018607   -0.9487659014
H       -0.6640316095   -0.3490828070   -2.8967282659
H        0.7396296224    0.5567987002   -3.6774533301
H        1.9945939948    0.5161960653   -1.5014604461
H       -0.5040166390   -1.0040709261   -0.5033803510
H        1.0889863474   -1.2487425502    0.2091685270
H       -0.1620347711    0.2969698374    1.6173761214
H        1.1697176809    1.1782800910    0.8831029789
H       -0.9870320867    2.4594829428    0.9284353204
H       -1.7085623350    1.2484910270   -0.1683863158
16   
torsion grid (30,)
C       -0.2806220664    1.3098552048   -2.6644195021
C        0.3902215884    0.2713788593   -1.8623426507
C       -0.2446907750   -0.3248273292   -0.6284377903
C        0.1648340974    0.4298412238    0.6437386371
C       -0.4143375803   -0.1759055059    1.9100054463
O       -0.2108251057   -0.0517875467   -3.1300385294
F        0.0752765536   -1.4835483531    2.0901942978
H       -1.2774538588    1.6447481037   -2.3751659944
H        0.3089582572    2.0252420338   -3.2373741096
H        1.4821039322    0.2508281829   -1.8853443013
H       -1.3343473941   -0.3073821928   -0.7477205938
H        0.0512428646   -1.3758950443   -0.5432806938
H        1.2574338784    0.4555812288    0.7363488242
H       -0.1721884435    1.4734828046    0.5868319200
H       -1.5066773766   -0.2476414830    1.8619056561
H       -0.1281873901    0.3979455966    2.7973126693
16   
torsion grid (45,)
C       -0.2116133099    1.3727256221   -2.5841460338
C        0.3773615503    0.2073115754   -1.9019345307
C       -0.2330726629   -0.3706030524   -0.6448155339
C        0.1098170297    0.4596347580    0.5987552827
C       -0.4208375328   -0.1459898693    1.8862236827
O       -0.3435067397    0.0456700994   -3.1357301742
F        0.1781310242   -1.3994582207    2.1157387295
H       -1.1389130795    1.8013168975   -2.2023632133
H        0.4208153180    2.0505263432   -3.1566674251
H        1.4546235638    0.0642383192   -2.0098880735
H       -1.3180111327   -0.4426532920   -0.7852561600
H        0.1285243226   -1.3955885594   -0.5078649639
H        1.1965484736    0.5773857258    0.6892091997
H       -0.3100021227    1.4697002459    0.5045603316
H       -1.5027885909   -0.3127844783    1.8395263973
H       -0.1884457517    0.4827134674    2.7517861833
16   
torsion grid (60,)
C       -0.1221868275    1.4008630539   -2.5177348178
C        0.3554677005    0.1339052505   -1.9358602775
C       -0.2188022881   -0.4259758912   -0.6485773806
C        0.0477722189    0.4724649029    0.5658233731
C       -0.4250965944   -0.1376240751    1.8735905981
O       -0.4741634083    0.1328871294   -3.1110112907
F        0.2868047136   -1.3228192421    2.1420739319
H       -0.9526692448    1.9270743006   -2.0465767550
H        0.5508354975    2.0187736044   -3.1113890915
H        1.3920871949   -0.1368553499   -2.1447853460
H       -1.2917640277   -0.5975436997   -0.7937159732
H        0.2196703293   -1.4125869115   -0.4640756237
H        1.1195344566    0.6903704950    0.6474904612
H       -0.4612484416    1.4369981949    0.4434143546
H       -1.4870563059   -0.4047812008    1.8352447187
H       -0.2516303362    0.5373388433    2.7178430636
16   
torsion grid (75,)
C       -0.0189666585    1.4378001630   -2.4709391108
C        0.3151789311    0.0906937507   -1.9707507831
C       -0.2132038525   -0.4580520631   -0.6534013760
C       -0.0434748871    0.4968178816    0.5360293943
C       -0.4441303049   -0.1292699068    1.8602170570
O       -0.6164964726    0.2649968868   -3.0564233276
F        0.3926661172   -1.2238586216    2.1533710293
H       -0.7085812767    2.0663258972   -1.9083332198
H        0.6837802649    1.9701494103   -3.1117039519
H        1.2704705506   -0.3204380900   -2.3003154549
H       -1.2665324085   -0.7278512490   -0.7910921432
H        0.3110108297   -1.3922609291   -0.4280699830
H        0.9980320193    0.8326736978    0.6055365881
H       -0.6566391203    1.3958385586    0.3972743141
H       -1.4710350372   -0.5105838182    1.8340351148
H       -0.3422916694    0.5806132146    2.6872883027
16   
torsion grid (90,)
C        0.0813704896    1.4608490109   -2.4260458488
C        0.2722610506    0.0592791614   -2.0011224752
C       -0.1724345532   -0.4931163452   -0.6526812610
C       -0.1150454170    0.5062450307    0.5117284391
C       -0.4483957908   -0.1314480743    1.8488857060
O       -0.7700815854    0.4236970901   -2.9355694128
F        0.5036241324   -1.1203986770    2.1667740985
H       -0.4052266411    2.1684020116   -1.7562489065
H        0.7647248462    1.9020985333   -3.1521850666
H        1.0866677204   -0.4821574820   -2.4835811861
H       -1.1974941239   -0.8644317866   -0.7651721438
H        0.4529047299   -1.3554456419   -0.4032403797
H        0.8805733954    0.9608062123    0.5738445989
H       -0.8300355801    1.3230842594    0.3533607761
H       -1.4266123143   -0.6247372699    1.8300269626
H       -0.4286237563    0.6027195344    2.6605793848
16   
torsion grid (105,)
C        0.1687458547    1.4638744175   -2.3778154577
C        0.2260522699    0.0332608568   -2.0124950121
C       -0.1071550196   -0.5294733967   -0.6396147432
C       -0.1611210090    0.4992038781    0.4980438582
C       -0.4692690589   -0.1335819126    1.8432480478
O       -0.8908417458    0.5784286653   -2.7591007777
F        0.5530485536   -1.0348781099    2.2020464002
H       -0.0955469989    2.2063695875   -1.6266076126
H        0.7866222997    1.8333418080   -3.1970352218
H        0.8631058431   -0.5998258029   -2.6312570564
H       -1.0902250824   -1.0096606144   -0.7163982772
H        0.6214372362   -1.3049169019   -0.3851484776
H        0.7891738758    1.0406325734    0.5704222299
H       -0.9435892994    1.2430695535    0.3014286476
H       -1.4037792278   -0.7050647036    1.8179503449
H       -0.5255099387    0.6173787168    2.6376473845
16   
torsion grid (120,)
C        0.2462363059    1.4608569485   -2.3375996407
C        0.1789278592    0.0228024259   -2.0084752709
C       -0.0342544664   -0.5473853256   -0.6193237923
C       -0.1807775717    0.4909129836    0.4993622714
C       -0.4864765735   -0.1399852320    1.8454082550
O       -0.9557543003    0.7177464725   -2.5817447864
F        0.5741299630   -0.9801580218    2.2406852161
H        0.1774636206    2.2054062098   -1.5463626988
H        0.7852181174    1.7810332863   -3.2298045629
H        0.6456771508   -0.6624901110   -2.7177475577
H       -0.9560894124   -1.1422497111   -0.6570352253
H        0.7882182876   -1.2290892155   -0.3806135189
H        0.7328088404    1.0893900937    0.5905193115
H       -1.0017565643    1.1804932265    0.2649792864
H       -1.3878427439   -0.7616666888    1.8064672523
H       -0.6022537156    0.6168418719    2.6276962547
16   
torsion grid (135,)
C        0.3174995637    1.4500298558   -2.3265434143
C        0.1170303342    0.0242545676   -2.0061433298
C        0.0091159030   -0.5456198370   -0.6074028797
C       -0.2125610610    0.4875166449    0.5023636482
C       -0.4915779635   -0.1519347202    1.8495403776
O       -0.9829705087    0.8493525327   -2.4535257356
F        0.6119785163   -0.9287921023    2.2576588556
H        0.4100639981    2.1822413556   -1.5263282401
H        0.7939878644    1.7263604432   -3.2672687166
H        0.4341066355   -0.6956539907   -2.7628336625
H       -0.8354610541   -1.2478070654   -0.6092164653
H        0.9094232532   -1.1322345720   -0.3945988206
H        0.6618535637    1.1406349481    0.6005278994
H       -1.0701802360    1.1236973032    0.2501080944
H       -1.3559012423   -0.8240088443    1.8082727785
H       -0.6557663430    0.6014735179    2.6264386544
16   
torsion grid (150,)
C        0.4138220083    1.4429760083   -2.3340213921
C        0.0509274274    0.0524872725   -2.0079645831
C        0.0071957676   -0.5190433985   -0.6063509495
C       -0.2902760315    0.4964187814    0.5016610860
C       -0.5067672704   -0.1594208103    1.8519705710
O       -0.9620902396    1.0105760380   -2.3762316568
F        0.6584397674   -0.8444805198    2.2540819511
H        0.6465068901    2.1486995216   -1.5385527152
H        0.8543897388    1.6698490056   -3.3045727307
H        0.2319771920   -0.6915894600   -2.7862388160
H       -0.7579514361   -1.3068696029   -0.5923018185
H        0.9630655502   -1.0175785766   -0.4087466802
H        0.5287775657    1.2183390969    0.5939528461
H       -1.1948077293    1.0626389051    0.2494432785
H       -1.3146212235   -0.8988725021    1.8192716210
H       -0.7251330244    0.5805987840    2.6284159886
16   
torsion grid (165,)
C        0.5410364850    1.3964053921   -2.3356924966
C       -0.0090389712    0.0723704129   -2.0009651297
C       -0.0270295517   -0.5069068621   -0.5996188258
C       -0.4110088334    0.4838404931    0.5037371647
C       -0.4874530748   -0.1685574517    1.8708556726
O       -0.8861995493    1.1740371798   -2.3068138516
F        0.7739042504   -0.6806051381    2.2397708720
H        0.9179948816    2.0453950071   -1.5465940021
H        0.9586487462    1.5723352190   -3.3266396215
H        0.0224155815   -0.6771676347   -2.7941184075
H       -0.7182470054   -1.3597895730   -0.5874844008
H        0.9656366741   -0.9248842344   -0.3938274866
H        0.3085822768    1.3084823762    0.5527302588
H       -1.3870859041    0.9282985016    0.2795365017
H       -1.1872608368   -1.0116935227    1.8805209674
H       -0.7773941794    0.5504776520    2.6435363013
16   
torsion grid (180,)
C        0.6476263857    1.3487891218   -2.3473989867
C       -0.0756574131    0.1139281916   -2.0050072815
C       -0.0580326845   -0.4913145920   -0.6100726634
C       -0.5300826860    0.4585862886    0.4951757494
C       -0.4692270951   -0.1746988813    1.8722684435
O       -0.7917409251    1.3451485043   -2.2245954084
F        0.8615074580   -0.5084603253    2.1995845725
H        1.1705619672    1.8987878472   -1.5649910225
H        1.0242720227    1.4981458441   -3.3588272805
H       -0.2141163710   -0.6049691302   -2.8141836061
H       -0.6684730838   -1.4029083873   -0.6095807562
H        0.9646224795   -0.8229581206   -0.3944046443
H        0.0717900961    1.3735940866    0.5020160052
H       -1.5632631054    0.7696726319    0.3053170999
H       -1.0497283094   -1.1029542180    1.9199456909
H       -0.8242219387    0.5132516333    2.6461149925
