30   
torsion grid (-165,)
C       -2.6339568022    3.4439762098    3.0062575180
C       -2.5146063750    3.0488423171    1.6727150746
C       -2.1658081583    2.6053880020    4.0215327403
C       -1.9599871615    1.8019994677    1.3730879865
C       -1.5202069992    1.3944816470    3.7375742505
C       -1.4041487754    1.0075919419    2.3851992336
C       -1.1691520583   -1.4268543425    2.2296719864
C        0.1901365300   -0.0350308948    0.8164878731
C       -0.0908347007   -2.4984713347    2.3256148070
C        1.3438287067   -1.0311479513    0.8539643285
C       -0.9253630016    0.5695311947    4.8539537245
N       -0.5534593427   -0.1138459325    2.0630553511
N        0.7859483155   -2.4264705740    1.0858351906
H       -3.0791313237    4.4024921497    3.2566299454
H       -2.8868370463    3.6828618978    0.8732777868
H       -2.2563781978    2.9201120776    5.0581615471
H       -1.8812941995    1.4964714765    0.3332436777
H       -1.8700014293   -1.6675485916    1.4077416794
H       -1.7469770580   -1.4506211622    3.1543075761
H        0.6120084527    0.9661603144    0.7055124619
H       -0.4274967138   -0.2323324935   -0.0800144486
H        0.5653774483   -2.3193111700    3.1787546439
H       -0.5038935626   -3.5080394797    2.3759732196
H        1.9038573780   -1.0554614734   -0.0832583134
H        2.0164672127   -0.8239956421    1.6875939963
H       -1.5674705876   -0.2786117645    5.1238497958
H        0.0525552500    0.1688362977    4.5687551363
H       -0.7987756440    1.1700386600    5.7572985270
H        0.2256166951   -2.6981750622    0.2684161217
H        1.5511587756   -3.1067279525    1.1534507836
30   
torsion grid (-150,)
C       -2.4566463932    3.5431891190    2.9510172047
C       -2.4294591316    3.1038847121    1.6253124096
C       -2.0974952956    2.6653145365    3.9789997774
C       -2.0970403461    1.7730745930    1.3618034382
C       -1.5942096935    1.3845224087    3.7107135686
C       -1.5507554725    0.9571783214    2.3635536993
C       -1.1695805615   -1.4700238873    2.2208603059
C        0.0805576171   -0.0043188133    0.7817619223
C       -0.0231931845   -2.4688615767    2.3134533867
C        1.2966479558   -0.9235086363    0.8165633925
C       -1.0290489439    0.5443723868    4.8306179359
N       -0.6425367492   -0.1192363215    2.0387998773
N        0.8340244703   -2.3505631773    1.0638968111
H       -2.7450671525    4.5635102695    3.1865360914
H       -2.7398604219    3.7581651298    0.8160630644
H       -2.1283494605    3.0106534998    5.0092850589
H       -2.0877693504    1.4360188724    0.3278793862
H       -1.8610787436   -1.7636321601    1.4085820301
H       -1.7349943885   -1.5237845857    3.1518964251
H        0.4358251075    1.0208115383    0.6583011919
H       -0.5320983543   -0.2487334377   -0.1060939811
H        0.6291231385   -2.2408629693    3.1579402005
H       -0.3696327774   -3.5024681697    2.3764792415
H        1.8489822666   -0.9179405481   -0.1254897765
H        1.9613925215   -0.6659412735    1.6424801320
H       -1.6922621236   -0.2892740717    5.0930252042
H       -0.0577186822    0.1222115103    4.5509888095
H       -0.8924919689    1.1394728708    5.7358243567
H        0.2842635819   -2.6646928300    0.2545543296
H        1.6427154924   -2.9788794725    1.1282258536
30   
torsion grid (-135,)
C       -2.2789384512    3.6102818927    2.8965905929
C       -2.3504979580    3.1233804122    1.5875088681
C       -2.0320580673    2.7221471312    3.9498715527
C       -2.2448014954    1.7457728278    1.3874528272
C       -1.6805679344    1.3841452779    3.7159194703
C       -1.7122952262    0.9067677497    2.3817786131
C       -1.1936956218   -1.5057388646    2.2462174618
C       -0.0407208832    0.0253960015    0.7932263929
C        0.0110865234   -2.4333442330    2.3390714181
C        1.2280324101   -0.8198087248    0.8288581499
C       -1.1479974943    0.5383111056    4.8472031382
N       -0.7493310116   -0.1248232376    2.0562333018
N        0.8537328090   -2.2709837822    1.0848516601
H       -2.4037189117    4.6699291371    3.0998977616
H       -2.6006020040    3.7784452740    0.7583795546
H       -1.9981816315    3.1011835175    4.9681223218
H       -2.3058414138    1.3765728554    0.3649563388
H       -1.8690610071   -1.8456976544    1.4387434356
H       -1.7507764492   -1.5877945894    3.1803182055
H        0.2528157266    1.0688455473    0.6630669206
H       -0.6415929050   -0.2595851298   -0.0901178218
H        0.6526365580   -2.1614265410    3.1788568841
H       -0.2722460348   -3.4854646710    2.4102535729
H        1.7758480883   -0.7852641689   -0.1152033822
H        1.8788137056   -0.5183154913    1.6510499939
H       -1.8287984891   -0.2831038915    5.1010728132
H       -0.1796276645    0.0987170328    4.5812985347
H       -1.0105775063    1.1329701718    5.7524153737
H        0.3202547979   -2.6218718128    0.2797399244
H        1.6991523242   -2.8490475843    1.1484275223
30   
torsion grid (-120,)
C       -2.0595493550    3.5904442425    2.8475020833
C       -2.2327603902    3.0677288228    1.5588396054
C       -1.9334565199    2.7107611239    3.9295833116
C       -2.3553299735    1.6834187032    1.4340118265
C       -1.7385389457    1.3334840810    3.7365487194
C       -1.8302792216    0.8165181338    2.4163937397
C       -1.1803058997   -1.5727058854    2.2516152872
C       -0.1207918556    0.0371687574    0.8102786606
C        0.0775183361   -2.4281838334    2.3362166657
C        1.1953865890   -0.7325391380    0.8414236670
C       -1.2471274624    0.4788505085    4.8799125083
N       -0.8187403800   -0.1651261954    2.0730617786
N        0.9076738536   -2.2056945087    1.0831230256
H       -2.0178378529    4.6631501774    3.0123818983
H       -2.4248526123    3.7150572605    0.7083849843
H       -1.8396825084    3.1137983319    4.9348581710
H       -2.4823285222    1.2815726566    0.4280204578
H       -1.8351974403   -1.9467383390    1.4425587271
H       -1.7296793766   -1.6937588093    3.1861634911
H        0.1114114775    1.0965867649    0.6889352662
H       -0.7038175636   -0.2754231855   -0.0753100973
H        0.7029057827   -2.1257010631    3.1777996251
H       -0.1430483569   -3.4957349834    2.3992343579
H        1.7417257032   -0.6561869415   -0.1010286065
H        1.8255879602   -0.4006704650    1.6679582934
H       -1.9459595971   -0.3320540923    5.1153834661
H       -0.2792778680    0.0245059962    4.6338753244
H       -1.1170718929    1.0692892343    5.7890168940
H        0.3945868399   -2.5794404395    0.2750376226
H        1.7855905274   -2.7338303902    1.1405934849
30   
torsion grid (-105,)
C       -1.8664744762    3.5608290745    2.7735002329
C       -2.1628548456    3.0086740193    1.5152868208
C       -1.8290435067    2.7171751952    3.8920463815
C       -2.4869160109    1.6531464593    1.4908224401
C       -1.7866531304    1.3181227830    3.7527314402
C       -1.9557625974    0.7577387813    2.4521573070
C       -1.1947730373   -1.6033201026    2.2502900474
C       -0.1925370853    0.0842385698    0.8565679531
C        0.0979962343   -2.4058083221    2.3270933385
C        1.1542820078   -0.6298502882    0.8838182246
C       -1.3211517513    0.4698833881    4.9113278043
N       -0.8910650605   -0.1758944507    2.1108879645
N        0.9283700701   -2.1194993310    1.0874278682
H       -1.6684467122    4.6226980844    2.8875503649
H       -2.3293418131    3.6346352796    0.6438689876
H       -1.6581236342    3.1464517379    4.8761590622
H       -2.7030011225    1.2261571493    0.5080356975
H       -1.8261905511   -1.9858419485    1.4269353309
H       -1.7456314054   -1.7681621930    3.1776181821
H       -0.0034790092    1.1544129697    0.7613599016
H       -0.7560831563   -0.2319303984   -0.0398183806
H        0.7029774198   -2.0957825927    3.1808455057
H       -0.0769876720   -3.4829127069    2.3651569419
H        1.7057647918   -0.5068919389   -0.0506638096
H        1.7617983834   -0.2915505541    1.7246569110
H       -2.0434529759   -0.3163961361    5.1566269002
H       -0.3666777873   -0.0165375847    4.6722465251
H       -1.1717119854    1.0706297277    5.8107719670
H        0.4387157176   -2.4954116644    0.2659594627
H        1.8276735869   -2.6107768229    1.1411235837
30   
torsion grid (105,)
C       -3.2527570759    2.3669119452    3.0651127570
C       -2.8763525340    2.3010358004    1.7029698735
C       -2.2796356628    2.1981800564    4.0483046673
C       -1.5264703354    2.1537183113    1.4277685694
C       -1.0055992524    1.6779685458    3.7225879906
C       -0.6602047849    1.5088469444    2.3609048608
C       -1.2843655174   -0.7898259316    1.9849524074
C        0.7995407287   -0.0197430844    1.0539404411
C       -0.7553175746   -2.2097656674    2.1343878967
C        1.4231453706   -1.4075787691    1.1440352326
C       -0.1478051527    1.1063255855    4.8292784571
N       -0.1801797856    0.1540245846    2.1216502678
N        0.3174925635   -2.4491857049    1.0837162092
H       -4.2835896033    2.5640273913    3.3458027888
H       -3.5785618447    2.5530781958    0.9137636878
H       -2.5478770170    2.3123390729    5.0962364407
H       -1.2390215611    2.1061386034    0.3746254718
H       -1.8194963866   -0.6828367821    1.0233683621
H       -2.0158977932   -0.6129663361    2.7762563870
H        1.5983503748    0.7152111261    1.1760945111
H        0.3729133864    0.1250458051    0.0427976049
H       -0.2758804997   -2.3529583147    3.1038770966
H       -1.5331236398   -2.9615868636    1.9850177038
H        2.1122593142   -1.6146220871    0.3225170113
H        1.9278819754   -1.5504497172    2.1008645692
H       -0.5609299137    0.1694415046    5.2234077726
H        0.8708023367    0.9099372899    4.4913601303
H       -0.1031953408    1.8095492804    5.6670721558
H       -0.1185393250   -2.4153828331    0.1538977205
H        0.7119646214   -3.3907290063    1.1871240403
30   
torsion grid (120,)
C       -3.2264590000    2.5995228858    3.0669446979
C       -2.8799529239    2.4383946722    1.7111815170
C       -2.2832831473    2.3148091317    4.0535904524
C       -1.5745704644    2.0713244160    1.4110691042
C       -1.0789090953    1.6525988464    3.7382884008
C       -0.7657151333    1.4259599913    2.3816150452
C       -1.2763451513   -0.9012672836    2.0389159618
C        0.7260767770   -0.0184874426    1.0319063426
C       -0.6684834015   -2.2923111550    2.1592927789
C        1.4280417158   -1.3694471504    1.0988263716
C       -0.2548352899    1.0410566823    4.8491233325
N       -0.2210265174    0.1015334080    2.1336139092
N        0.3795095857   -2.4700235173    1.0718841362
H       -4.2158795814    2.9517150532    3.3445100088
H       -3.5614428644    2.7397154380    0.9209506004
H       -2.5292551575    2.4881736725    5.0987174942
H       -1.3119622386    1.9409179769    0.3602942779
H       -1.8565102873   -0.8179700974    1.1007996727
H       -1.9817551559   -0.7659897054    2.8613823688
H        1.4864876651    0.7605095463    1.1228577274
H        0.2556091875    0.0982023272    0.0365875603
H       -0.1492865050   -2.4146661560    3.1110146831
H       -1.4101218365   -3.0835821580    2.0315390091
H        2.0999559439   -1.5374880102    0.2544857073
H        1.9708626161   -1.4849339600    2.0382909166
H       -0.6735921646    0.0834480233    5.1842304259
H        0.7754567858    0.8617363247    4.5369226363
H       -0.2426908781    1.7036098514    5.7194895029
H       -0.0884163458   -2.4592733063    0.1571307372
H        0.8284378710   -3.3885052482    1.1592738161
30   
torsion grid (135,)
C       -3.1671820793    2.8116686236    3.0522940798
C       -2.8555607511    2.5803504073    1.7033538586
C       -2.2793159889    2.3970936632    4.0454530943
C       -1.6325052360    1.9941945118    1.3907336842
C       -1.1611722071    1.6004345885    3.7387180599
C       -0.8813512341    1.3308740871    2.3847562407
C       -1.2654626637   -1.0280198338    2.0803302231
C        0.6338185344   -0.0300014165    0.9865826143
C       -0.5682578669   -2.3780332795    2.1835820003
C        1.4241716567   -1.3317375005    1.0387272298
C       -0.3762797095    0.9400111762    4.8493536791
N       -0.2735441942    0.0401632315    2.1232521008
N        0.4486261047   -2.4977448878    1.0593212787
H       -4.0905197680    3.3153737170    3.3235878063
H       -3.5016942255    2.9507934862    0.9127381350
H       -2.5004895525    2.6132448208    5.0879366640
H       -1.3997281014    1.8073578984    0.3431815249
H       -1.8883913578   -0.9878369336    1.1665772861
H       -1.9433489328   -0.9311934564    2.9306407328
H        1.3441620684    0.7983959511    1.0378994444
H        0.1185250202    0.0413322268    0.0093044391
H       -0.0078766722   -2.4607006107    3.1160395416
H       -1.2626871361   -3.2152265312    2.0871834021
H        2.0735655441   -1.4645831159    0.1708263934
H        2.0077220200   -1.4021072989    1.9579658708
H       -0.7830529423   -0.0482375288    5.1005801392
H        0.6719910355    0.8023219654    4.5757858347
H       -0.4211527864    1.5429373837    5.7600757375
H       -0.0518034960   -2.5265920104    0.1623207998
H        0.9591521820   -3.3843476761    1.1371794814
30   
torsion grid (150,)
C       -3.0606640415    3.0263068621    3.0409298894
C       -2.7780683846    2.7608308716    1.6956055136
C       -2.2629918546    2.4668361777    4.0412685321
C       -1.6764455455    1.9677478050    1.3771968577
C       -1.2456923213    1.5478479618    3.7373248485
C       -0.9932834128    1.2609422703    2.3813308574
C       -1.2357897328   -1.1299649449    2.1295630976
C        0.5316224017   -0.0232438145    0.9292742998
C       -0.4394116143   -2.4244409123    2.2281513564
C        1.4194354367   -1.2609662501    0.9748820305
C       -0.5111765963    0.8321860769    4.8474208659
N       -0.3239131708    0.0076202204    2.1057000421
N        0.5359503018   -2.4953193686    1.0636596426
H       -3.8936466768    3.6702778537    3.3079849667
H       -3.3629258974    3.2226442497    0.9055208042
H       -2.4653012302    2.7032144693    5.0830672622
H       -1.4694969415    1.7577644093    0.3299557602
H       -1.8982341353   -1.1548745610    1.2431208750
H       -1.8825513121   -1.0646636576    3.0061778082
H        1.1783131055    0.8572529959    0.9262788513
H       -0.0318763178   -0.0185362365   -0.0235600526
H        0.1633808057   -2.4456465617    3.1373019075
H       -1.0741112114   -3.3115660194    2.1773712534
H        2.0389309561   -1.3668126710    0.0817791314
H        2.0455918602   -1.2646299992    1.8683647367
H       -0.9851712750   -0.1258511457    5.0988815753
H        0.5249743744    0.6219806498    4.5722933532
H       -0.5137582184    1.4345097648    5.7592714478
H        0.0018610566   -2.5830421091    0.1901788464
H        1.1144135378   -3.3395339299    1.1376429049
30   
torsion grid (165,)
C       -2.9432680556    3.1859164594    3.0342469121
C       -2.6941961844    2.8799067403    1.6934373811
C       -2.2512256293    2.5093031029    4.0413475870
C       -1.7451877818    1.9066863026    1.3761517450
C       -1.3447314086    1.4808112046    3.7456553544
C       -1.1226931101    1.1652716164    2.3905176619
C       -1.2052653153   -1.2517743574    2.1865839619
C        0.4170822375   -0.0405947648    0.8888535550
C       -0.3047431665   -2.4761372211    2.2856933563
C        1.4051393384   -1.2002290386    0.9325970441
C       -0.6623820495    0.7217280270    4.8596696047
N       -0.3907195094   -0.0457175105    2.0975686482
N        0.6305841733   -2.4996081797    1.0870027577
H       -3.6667318930    3.9531213994    3.2945393148
H       -3.2084004783    3.4153180423    0.9006176959
H       -2.4291838913    2.7704622140    5.0816197745
H       -1.5665009262    1.6660954800    0.3313376944
H       -1.8956428890   -1.3542599985    1.3273637483
H       -1.8226686367   -1.2157558517    3.0852816336
H        0.9879794744    0.8891963431    0.8350686619
H       -0.1807291780   -0.1121265067   -0.0399580356
H        0.3297219734   -2.4251215490    3.1718320176
H       -0.8668817825   -3.4122978530    2.2796328101
H        1.9976990228   -1.2806768634    0.0188032155
H        2.0620195541   -1.1265953838    1.8005718632
H       -1.2057150249   -0.1952575104    5.1233557869
H        0.3540625580    0.4327098393    4.5801125154
H       -0.6134701875    1.3296228276    5.7661894704
H        0.0742064346   -2.6551882403    0.2371751355
H        1.2790475463   -3.2914583014    1.1596412465
30   
torsion grid (180,)
C       -2.7998753234    3.3343807146    3.0158347102
C       -2.6139159590    2.9833052807    1.6772087732
C       -2.2081632768    2.5679491845    4.0228778753
C       -1.8467128841    1.8602300711    1.3591737640
C       -1.4234372882    1.4446777340    3.7279623840
C       -1.2555864795    1.0944393836    2.3725867006
C       -1.1701512288   -1.3361319555    2.1934812481
C        0.3086992754   -0.0215386084    0.8267527262
C       -0.1719441756   -2.4830709674    2.2846065806
C        1.3883610798   -1.0970957335    0.8614233465
C       -0.7782408180    0.6520095721    4.8401953833
N       -0.4597636330   -0.0692009349    2.0595051238
N        0.7279920911   -2.4523473990    1.0595881780
H       -3.3945435306    4.2053247846    3.2756365457
H       -3.0647465918    3.5736773521    0.8848236148
H       -2.3423484005    2.8560066984    5.0625757471
H       -1.7177178308    1.5865053179    0.3156054364
H       -1.8749804104   -1.5107679047    1.3581419937
H       -1.7612556557   -1.3340633122    3.1101899007
H        0.8011726908    0.9496127331    0.7406783462
H       -0.3070025732   -0.1587941692   -0.0825191443
H        0.4811035654   -2.3661624217    3.1508336560
H       -0.6565804298   -3.4612899424    2.3095369236
H        1.9596550257   -1.1457159396   -0.0680312773
H        2.0611511660   -0.9536198035    1.7082240838
H       -1.3763119338   -0.2257340584    5.1176753925
H        0.2146786273    0.2974996800    4.5489770405
H       -0.6766667259    1.2609767371    5.7413349964
H        0.1629097327   -2.6687812780    0.2290408841
H        1.4412205734   -3.1870111332    1.1260366661
