15   
torsion grid (-165,)
C       -0.1950910323   -1.3123409634    1.1334428176
C        0.6226568805    1.4013825628   -1.8464115764
C       -1.0129737672    0.2256445885   -0.5977719184
N        0.3462651856   -1.3787599137    2.4190261495
N       -0.2064231850   -0.0324038949    0.5965277151
O       -0.6308795054   -2.2988119076    0.5467430860
O       -0.6417304359    1.4496468855   -1.1857076272
H        0.7909231680    2.3922167211   -2.2730800361
H        0.6138902781    0.6550658274   -2.6530936817
H        1.4328919079    1.1600497679   -1.1477199975
H       -2.0752432367    0.3271809516   -0.3507633438
H       -0.8818360260   -0.6260064464   -1.2728068364
H        0.5437442201   -2.3339267017    2.6949636908
H        1.1011515918   -0.7343872602    2.6271226922
H       -0.2345678773    0.7251410756    1.2717929855
15   
torsion grid (-150,)
C       -0.1315271958   -1.2910306914    1.0679273020
C        0.6501932785    1.3159489891   -1.8209874123
C       -1.0818994531    0.2935413866   -0.5689536319
N        0.3692233904   -1.3902355809    2.3684097750
N       -0.3168200678    0.0150733821    0.6411442194
O       -0.3960684878   -2.2772358557    0.3863135295
O       -0.6276299973    1.4678508774   -1.2046000373
H        0.8891755537    2.2742040866   -2.2866391894
H        0.6228085190    0.5329674994   -2.5917799816
H        1.4233727267    1.0630723979   -1.0851768357
H       -2.1355225901    0.4810978488   -0.3378524471
H       -1.0013039763   -0.5900576980   -1.2097306038
H        0.6979630654   -2.3274178310    2.5712218428
H        1.0135103454   -0.6654325629    2.6652176059
H       -0.4026969446    0.7173450445    1.3677499837
15   
torsion grid (-135,)
C       -0.0741631744   -1.2530471468    1.0052565010
C        0.6746463005    1.2255190808   -1.7849545363
C       -1.1458631063    0.3539807643   -0.5451551666
N        0.4048435140   -1.3976301926    2.3093922628
N       -0.4331565070    0.0459093882    0.6841170044
O       -0.1810908239   -2.2026953459    0.2348398280
O       -0.6053703547    1.4781210175   -1.2087927891
H        0.9822424419    2.1473348285   -2.2828547737
H        0.6206516937    0.4124165891   -2.5223063840
H        1.4139348902    0.9601463553   -1.0188582158
H       -2.1854080751    0.6213095252   -0.3336222519
H       -1.1141620235   -0.5481265692   -1.1639745895
H        0.8579087220   -2.2942554125    2.4438673843
H        0.9309027732   -0.6199616114    2.6926585459
H       -0.5731381044    0.6906700221    1.4526512996
15   
torsion grid (-120,)
C       -0.0225008674   -1.2040458314    0.9442619065
C        0.6955855427    1.1317703817   -1.7362022573
C       -1.2078306590    0.4027012168   -0.5279455940
N        0.4493249771   -1.3933485788    2.2449196794
N       -0.5536277620    0.0527138252    0.7177362977
O        0.0097374521   -2.0927312059    0.0977417364
O       -0.5801415144    1.4780176214   -1.2003051644
H        1.0718953834    2.0192703483   -2.2491125459
H        0.6112923665    0.3019785185   -2.4511669307
H        1.3989307679    0.8440174547   -0.9445267340
H       -2.2271297621    0.7456551394   -0.3329742499
H       -1.2278453542   -0.5032448704   -1.1417679690
H        1.0152971050   -2.2307089461    2.3191067319
H        0.8564375462   -0.5895105014    2.7098642320
H       -0.7166470556    0.6571567206    1.5126349803
15   
torsion grid (-105,)
C        0.0005048230   -1.1642483105    0.8891668909
C        0.7191675801    1.0462561134   -1.6666232455
C       -1.2690484803    0.4349579419   -0.5204404527
N        0.5087544474   -1.3729268440    2.1722985971
N       -0.6968009778    0.0192788992    0.7417996050
O        0.1244222821   -1.9934641267   -0.0083975357
O       -0.5464469818    1.4701400019   -1.1624939353
H        1.1448372228    1.8991814229   -2.1994146777
H        0.6077188010    0.1981361635   -2.3547575061
H        1.3977435577    0.7505854892   -0.8563126782
H       -2.2662236551    0.8464986216   -0.3495188515
H       -1.3325954455   -0.4577395644   -1.1504174739
H        1.1756440812   -2.1353305756    2.1938682846
H        0.8059793149   -0.5586040241    2.6977272318
H       -0.8008784035    0.6369700843    1.5357798662
15   
torsion grid (-90,)
C        0.0086000065   -1.1324133842    0.8398206657
C        0.7441608839    0.9663709706   -1.5954713271
C       -1.3218295622    0.4554229422   -0.5123535215
N        0.5745798593   -1.3310141939    2.0973650796
N       -0.8470880760   -0.0450244887    0.7615708084
O        0.1977388949   -1.9092297320   -0.0922811933
O       -0.5024643174    1.4518865524   -1.0981196731
H        1.2043416784    1.7950792563   -2.1381223611
H        0.5985725233    0.1139106626   -2.2703522281
H        1.4116154954    0.6536526719   -0.7827611526
H       -2.2913511272    0.9333238864   -0.3609065498
H       -1.4275524370   -0.4086185049   -1.1758733462
H        1.3246588953   -2.0112179177    2.0790758260
H        0.7628845384   -0.5209835964    2.6759824690
H       -0.8640890891    0.6085461678    1.5346906233
15   
torsion grid (-75,)
C        0.0419852883   -1.1062617088    0.8270172406
C        0.7625451869    0.9131700041   -1.6137134786
C       -1.3223125992    0.4845654355   -0.4862288088
N        0.5868303039   -1.3059571958    2.0918341733
N       -0.9540641931   -0.1373831895    0.7753940245
O        0.3536634219   -1.8010692000   -0.1359554673
O       -0.4091549559    1.4409340538   -0.9893011410
H        1.2140737078    1.7416786274   -2.1648473203
H        0.5129691401    0.0990995369   -2.3043498296
H        1.4802574946    0.5325837525   -0.8787607646
H       -2.2571402410    1.0244600981   -0.3273489822
H       -1.4761885254   -0.3205383501   -1.2124136815
H        1.4048750143   -1.9024138546    2.0749337440
H        0.6535619788   -0.5193283243    2.7261984228
H       -1.0191228556    0.4761516074    1.5798059879
15   
torsion grid (-60,)
C        0.1548937069   -1.0587515219    0.9919101214
C        0.6699148707    0.9302222888   -1.9079034957
C       -1.1619970803    0.4293969304   -0.4390787669
N        0.4979641397   -1.3198009983    2.3140739072
N       -0.9682714326   -0.2532965743    0.8300884040
O        0.7426791255   -1.5816316838    0.0493244402
O       -0.1085683747    1.3178695496   -0.7707588199
H        1.4643554884    1.6742822220   -2.0018050774
H        0.0635174593    0.9464358523   -2.8245118447
H        1.1035191046   -0.0640129318   -1.7667821512
H       -2.0874189238    1.0060504626   -0.3486349069
H       -1.2841778295   -0.3283400723   -1.2184051811
H        1.4046022964   -1.7627028663    2.3996075584
H        0.3107352907   -0.6132164835    3.0149694145
H       -1.2289696750    0.2971871189    1.6401705173
15   
torsion grid (-45,)
C        0.1953316355   -1.0429422824    0.9887766993
C        0.6667560496    0.8926290260   -1.9221799026
C       -1.1538264841    0.4490050372   -0.4261033260
N        0.5047026350   -1.2796706328    2.3260102597
N       -0.9984631338   -0.3553387151    0.7837899718
O        0.8713889290   -1.4977009308    0.0715680757
O       -0.0281575551    1.2507668798   -0.7237722754
H        1.5263207494    1.5635797933   -1.9866705918
H        0.0326955822    1.0468619209   -2.8065979579
H        1.0093010790   -0.1451056042   -1.8782966057
H       -2.0211476332    1.0954731828   -0.2598964074
H       -1.3679626647   -0.2215095460   -1.2654011792
H        1.4359429098   -1.6619313234    2.4395845445
H        0.2666465417   -0.5685719110    3.0069546593
H       -1.3667504739    0.0941463982    1.6144981547
15   
torsion grid (-30,)
C        0.2592279721   -1.0141252697    0.9836262715
C        0.6592647455    0.8459968906   -1.9477319275
C       -1.1441558352    0.5044439092   -0.4092485277
N        0.4851029315   -1.2783979389    2.3366944893
N       -0.9744104142   -0.4280029293    0.7178473035
O        1.0417704927   -1.3750157500    0.1111930180
O        0.0087378454    1.2402592554   -0.7347662282
H        1.5359648601    1.4902604881   -2.0425298895
H        0.0027434880    1.0111653709   -2.8133003928
H        0.9743024515   -0.1994345539   -1.8991651147
H       -1.9354779585    1.2003227991   -0.1131464897
H       -1.4855358793   -0.0588409750   -1.2865786794
H        1.4296732347   -1.6080423146    2.4988668283
H        0.1808261550   -0.5831556991    3.0082784340
H       -1.4652559229   -0.1277419902    1.5522250241
15   
torsion grid (-15,)
C        0.3537627605   -0.9404759191    1.0051241983
C        0.6319573348    0.7903386852   -2.0045591843
C       -1.1152176755    0.5912089526   -0.3881407483
N        0.4372789889   -1.3411771704    2.3463240248
N       -0.8894054757   -0.4357786802    0.6568581655
O        1.2728378442   -1.1337971457    0.2164932700
O        0.0257085896    1.2805720785   -0.8022158364
H        1.4895646939    1.4388902723   -2.1941072341
H       -0.0693694604    0.8682578753   -2.8469304677
H        0.9736355147   -0.2393950525   -1.8782804617
H       -1.8082714166    1.3208641013    0.0440504319
H       -1.6036789561    0.1154616018   -1.2501706483
H        1.3827054888   -1.6197139215    2.5838562021
H        0.0213180217   -0.7267363853    3.0372141724
H       -1.5300480864   -0.3488280000    1.4367482351
15   
torsion grid (0,)
C        0.5067464456   -0.6062667271    1.1281967982
C        0.5632369175    0.5789088167   -2.0296522479
C       -1.0598185222    0.8672056749   -0.3195029335
N        0.3892288812   -1.5870083519    2.1352421873
N       -0.7241692241   -0.1290025461    0.7261718891
O        1.5981294835   -0.2845771715    0.6724729952
O        0.0071641187    1.4171913017   -1.0125788840
H        1.2689456491    1.2010351082   -2.5832950758
H       -0.2246508459    0.2292581439   -2.7131299390
H        1.0961226613   -0.2688411525   -1.5922080459
H       -1.5623689487    1.7098609330    0.1684845545
H       -1.7745685771    0.3814885714   -1.0054035338
H        1.3017760951   -1.7938333754    2.5269540920
H       -0.2999504521   -1.3962856919    2.8555440355
H       -1.5130455155   -0.6994422408    1.0049682273
15   
torsion grid (15,)
C        0.4951482033   -0.3776742808    1.2215385715
C        0.5179330552    0.3991102725   -1.9514667111
C       -1.0512422440    0.9927209577   -0.2750299560
N        0.4949920572   -1.6170070002    1.8882682915
N       -0.7715281670   -0.0206013807    0.7697826706
O        1.5186279520    0.2728753663    1.0666892173
O        0.0201372872    1.3997864855   -1.0671901145
H        1.2563540503    0.8899185471   -2.5878775994
H       -0.2893106216   -0.0075926391   -2.5801829859
H        1.0069577341   -0.4149315864   -1.4063922340
H       -1.4023693570    1.9090278651    0.2078485880
H       -1.8702769307    0.5765283097   -0.8829486399
H        1.3600481969   -1.7436506782    2.4025311591
H       -0.3226445266   -1.8182337277    2.4550573200
H       -1.3900485229   -0.8205852184    0.7016365420
15   
torsion grid (30,)
C        0.4464537780   -0.2721506297    1.3034734654
C        0.4744291401    0.3000569523   -1.9339196129
C       -1.0217827666    1.0392258760   -0.2481882708
N        0.5819589423   -1.5821195695    1.7905953005
N       -0.8098139860   -0.0291394552    0.7443741102
O        1.3503968114    0.5467863313    1.3673976870
O        0.0639192291    1.3568458640   -1.0749072327
H        1.2397907703    0.7136342812   -2.5930052980
H       -0.3655137307   -0.0698689526   -2.5432967578
H        0.9082959269   -0.5366905576   -1.3722967868
H       -1.2478308112    1.9711536687    0.2745782074
H       -1.9020434347    0.7325996945   -0.8328635331
H        1.3886417780   -1.6603031130    2.4003281491
H       -0.2507039949   -2.0014941210    2.1915107493
H       -1.2834194856   -0.8888449767    0.4884839421
15   
torsion grid (45,)
C        0.3981523685   -0.2310701023    1.3963124391
C        0.4201648485    0.2665062560   -1.9947345250
C       -0.9636279678    1.0431911966   -0.2287997568
N        0.6310373237   -1.5450515379    1.8232086449
N       -0.7977701178   -0.0847144416    0.6882669632
O        1.1742064302    0.6843483306    1.6233890021
O        0.1222752777    1.3151102908   -1.0830851119
H        1.1922595309    0.6449033090   -2.6672321076
H       -0.4647305903   -0.0167307950   -2.5873021811
H        0.8075169007   -0.6236776470   -1.4810434277
H       -1.0907739613    1.9560847630    0.3546598028
H       -1.8816810640    0.8415894926   -0.7993467293
H        1.3594313472   -1.5791434259    2.5279426978
H       -0.1860979230   -2.0910524758    2.0754420396
H       -1.1475842367   -0.9606019207    0.3145863691
15   
torsion grid (60,)
C        0.3622310117   -0.2215850581    1.4972652832
C        0.3541809650    0.2800306625   -2.1086958795
C       -0.8841021833    1.0171228049   -0.2190564570
N        0.6438769133   -1.5176603625    1.9415562628
N       -0.7263085667   -0.1562051713    0.6257378685
O        1.0138941442    0.7536515036    1.8408323953
O        0.1797657065    1.2770493571   -1.1129526276
H        1.1140755532    0.6521511385   -2.7986675715
H       -0.5782248521    0.0986808941   -2.6672992147
H        0.7059303525   -0.6694836115   -1.6811662994
H       -0.9383467684    1.8974514869    0.4207457402
H       -1.8300029602    0.8916819966   -0.7645500973
H        1.2707952832   -1.5089446164    2.7383654011
H       -0.1488406490   -2.1380110792    2.0669983735
H       -0.9661457835   -1.0362386528    0.1831509414
15   
torsion grid (75,)
C        0.3385457612   -0.2219889178    1.5952140019
C        0.2847004033    0.3104608729   -2.2291264205
C       -0.7945447624    0.9855679166   -0.2209930103
N        0.6319640013   -1.5014238760    2.0754875654
N       -0.6040982534   -0.2133791593    0.5703370960
O        0.8687860494    0.7886514552    2.0359519880
O        0.2203743043    1.2549660007   -1.1718728247
H        1.0078490015    0.6926003177   -2.9525010699
H       -0.6913059299    0.1938752129   -2.7268121128
H        0.6286794320   -0.6744416197   -1.8813222163
H       -0.7956740094    1.8380081981    0.4563674794
H       -1.7686120238    0.8980964127   -0.7226526595
H        1.1350422127   -1.4624514113    2.9547277827
H       -0.1280343173   -2.1729462372    2.0804901487
H       -0.7608937032   -1.0959038731    0.0989683709
15   
torsion grid (90,)
C       -1.0119909033    0.5946873962    1.9521840778
C        1.7802277952    0.2822365450   -0.8896153466
C       -0.5495612694    0.2158903253   -0.4451170388
N       -0.8405257369    0.0554247825    3.2311853027
N       -0.4789279278   -0.1904727132    0.9418465504
O       -1.6226767396    1.6364775266    1.7481938526
O        0.5504126595    0.9903481628   -0.8847306476
H        2.5299816597    0.9510472863   -1.3173094894
H        1.7179636557   -0.6280854455   -1.5073120764
H        2.0922063701    0.0023215866    0.1262394828
H       -1.4242916056    0.8519936742   -0.5772664104
H       -0.6434958337   -0.6926727331   -1.0571127735
H       -1.0823365264    0.7276404419    3.9504414179
H        0.0388723451   -0.4170252563    3.4096184726
H       -0.1965274031   -1.1346726302    1.1652480504
15   
torsion grid (105,)
C       -1.0702447864    0.5705169338    1.9817934299
C        1.8042591817    0.2347311826   -0.9756102812
C       -0.4974511024    0.2837194261   -0.4039970544
N       -0.8975144716    0.0155154955    3.2531789538
N       -0.3656341231   -0.0962959765    0.9885278204
O       -1.8061707214    1.5267196376    1.7708740304
O        0.6105029269    0.9996746958   -0.9157522359
H        2.5550798490    0.8544498671   -1.4702689416
H        1.6608455406   -0.6884582253   -1.5598249470
H        2.1678978017   -0.0302955391    0.0270360385
H       -1.3539646735    0.9503685670   -0.4937273352
H       -0.6600060289   -0.6270440131   -0.9991444502
H       -1.2668150273    0.6234317072    3.9755317549
H        0.0283800567   -0.3385433490    3.4676131229
H       -0.0498338826   -1.0333514607    1.2002635189
15   
torsion grid (120,)
C       -1.1213961153    0.5399780131    1.9987029437
C        1.8148813364    0.1803996196   -1.0395322945
C       -0.4534684298    0.3587159438   -0.3700353129
N       -0.9315273284   -0.0254771095    3.2627961080
N       -0.2699746150    0.0189353651    1.0306642439
O       -1.9771622019    1.3875960348    1.7748977607
O        0.6623192054    1.0033769035   -0.9519052015
H        2.5651241712    0.7410354667   -1.6010625098
H        1.5977507091   -0.7593576995   -1.5721971492
H        2.2222777650   -0.0567762887   -0.0465659466
H       -1.2862472185    1.0568091646   -0.4344484075
H       -0.6845626103   -0.5571667424   -0.9355709965
H       -1.4189319856    0.4995222451    3.9802222514
H        0.0254920215   -0.2478141173    3.5149296624
H        0.1147558357   -0.8946378498    1.2355982730
15   
torsion grid (135,)
C       -1.1734502810    0.4889960968    2.0050000125
C        1.8151668146    0.1162740041   -1.0897970552
C       -0.4103976583    0.4470020295   -0.3368121333
N       -0.9432645675   -0.0605844915    3.2695791096
N       -0.1992579322    0.1465224564    1.0730391748
O       -2.1528129867    1.1817356336    1.7535986318
O        0.7221496854    1.0123520327   -0.9622613347
H        2.5646001268    0.6131324381   -1.7094429680
H        1.5100576274   -0.8215310127   -1.5803185849
H        2.2676310520   -0.1189967901   -0.1155803436
H       -1.2118911865    1.1807765868   -0.3948697476
H       -0.7067923653   -0.4679602512   -0.8744710565
H       -1.5439265946    0.3591119472    3.9703505166
H        0.0266822299   -0.1177371630    3.5611705238
H        0.2948365755   -0.7139545677    1.2773086792
15   
torsion grid (150,)
C       -0.3078703121   -1.2479138246    1.4955481235
C       -0.0015533135    1.5663205779   -2.2990541505
C        0.0243289046   -0.1098194997   -0.6445400995
N       -0.1374466041   -1.1394324290    2.8779729996
N        0.3258880191   -0.2608956037    0.7693771592
O       -0.9772884832   -2.1382531568    0.9760244707
O        0.2048122626    1.2658705505   -0.9255251862
H        0.1606814080    2.6392852690   -2.4170551164
H       -1.0258513898    1.3185847150   -2.6125424331
H        0.7073377939    1.0209201661   -2.9388576856
H       -1.0051845096   -0.4351318166   -0.8483402967
H        0.7108475129   -0.7172065801   -1.2541781957
H       -0.4055651437   -1.9922726224    3.3552388823
H        0.7482803507   -0.7629011754    3.1970571013
H        0.5513616706    0.6125367222    1.2311385464
15   
torsion grid (165,)
C       -0.3035321797   -1.3181396092    1.2500577050
C        0.5491488980    1.5512797277   -1.8691138799
C       -0.8691358849    0.0763598182   -0.6682834832
N        0.2965707532   -1.3332123451    2.5100025323
N        0.0027264553   -0.1961708837    0.4893668781
O       -1.0468974517   -2.2116031562    0.8543692005
O       -0.6531336755    1.3916443408   -1.1149229198
H        0.5884252611    2.5976867664   -2.1780133710
H        0.5384543982    0.9100137217   -2.7610642475
H        1.4382842553    1.3130277382   -1.2719136047
H       -1.9244518536    0.0096552229   -0.3875371916
H       -0.6619005412   -0.6662246730   -1.4473650416
H        0.2441871279   -2.2478671011    2.9436842353
H        1.2127956256   -0.9043946243    2.5790968931
H        0.1612369784    0.6476363491    1.0339004141
15   
torsion grid (180,)
C       -0.2526762980   -1.3185830893    1.1951669847
C        0.5885349513    1.4793857861   -1.8622940734
C       -0.9419391262    0.1512971283   -0.6310633565
N        0.3220476595   -1.3594203173    2.4670074049
N       -0.0978978371   -0.1014267044    0.5448458752
O       -0.8526083390   -2.2713451480    0.7055084739
O       -0.6526390779    1.4222466721   -1.1584437813
H        0.6885561225    2.4998397168   -2.2373679055
H        0.5893917316    0.7795180244   -2.7093955618
H        1.4361084299    1.2447091102   -1.2068702280
H       -2.0041236304    0.1667018054   -0.3654432922
H       -0.7680226678   -0.6537080347   -1.3531071199
H        0.3893175774   -2.3074056668    2.8197303662
H        1.1706121078   -0.8195301084    2.5966573026
H       -0.0418834371    0.7074121181    1.1573330302
