22   
torsion grid (-165,)
C        1.6888637979    0.0122032459   -1.9234638923
C        0.4381077288    0.4007592815   -1.6641174075
C       -0.9588734021   -1.2603758754   -2.8969822507
C       -1.9784020186    0.5826076832   -1.6708775423
C       -0.9135603952   -1.2492304271   -0.4077350825
C        2.3813346202   -1.2921773390   -2.1855292583
N       -0.8258440599   -0.3963669572   -1.6577164507
O        1.5825203194   -2.4226993743   -1.8448388146
H        2.3897938283    0.8457417891   -1.9088604639
H        0.2433408048    1.4469049300   -1.4608980977
H       -1.9426810279   -1.7306582875   -2.8751998054
H       -0.8685313358   -0.6151363737   -3.7704950282
H       -0.1770564488   -2.0135568214   -2.8850265802
H       -2.9118249391    0.0208838624   -1.6779286942
H       -1.9284121772    1.2050282578   -0.7771984698
H       -1.9052840772    1.2003237303   -2.5657648559
H       -1.8799075936   -1.7558843451   -0.4038054757
H       -0.0967725175   -1.9664972875   -0.4293758349
H       -0.8269799658   -0.5938865993    0.4589732653
H        2.6786842381   -1.3152933319   -3.2452776392
H        3.3062171744   -1.2823230382   -1.5940204048
H        2.1175225542   -3.2267318737   -1.9492017214
22   
torsion grid (-150,)
C        1.7069665295    0.0689889541   -1.8680976559
C        0.4719055094    0.4019646333   -1.4902353294
C       -0.8358414215   -1.2731680432   -2.8248652261
C       -1.9231662385    0.6193001162   -1.7519745619
C       -0.9965403241   -1.2054716193   -0.3501260318
C        2.3144922775   -1.2161048543   -2.3695852331
N       -0.7952258366   -0.3784013943   -1.6042265999
O        1.7094772947   -2.3378368350   -1.7156440792
H        2.4213262545    0.8766907096   -1.7230171935
H        0.2850646394    1.3842038257   -1.0713131365
H       -1.8391308218   -1.6935328711   -2.8972466067
H       -0.6216630079   -0.6637317082   -3.7025379433
H       -0.1047561345   -2.0671427438   -2.7064947785
H       -2.8623166356    0.0731528161   -1.8352641824
H       -1.9487934164    1.2642185551   -0.8734393220
H       -1.7488566558    1.2126014979   -2.6493304915
H       -1.9588624572   -1.7149010849   -0.4211602913
H       -0.1773716037   -1.9190647281   -0.2870129077
H       -0.9870521136   -0.5353956098    0.5097166164
H        2.2028112288   -1.2835316989   -3.4621234755
H        3.3870843822   -1.1813066664   -2.1539597852
H        2.2587259245   -3.1240614016   -1.8709239819
22   
torsion grid (-135,)
C        1.7012599317    0.0392066762   -1.8154785926
C        0.4803641760    0.3079991475   -1.3524073473
C       -0.7957741190   -1.3850792304   -2.7215915337
C       -1.8596623575    0.6284119782   -1.8664893462
C       -1.1498796146   -1.1600654629   -0.2897854675
C        2.2694499471   -1.1669594528   -2.5279280954
N       -0.8056125548   -0.4153301056   -1.5625042087
O        1.8688592403   -2.3471331526   -1.8168408938
H        2.4292895513    0.7969961096   -1.5347998371
H        0.3121134583    1.2037869206   -0.7638074399
H       -1.8035041643   -1.7874410509   -2.8250437285
H       -0.5222915558   -0.8399478052   -3.6244200903
H       -0.0875701780   -2.1825798755   -2.5129716284
H       -2.8158569126    0.1256213771   -2.0108529784
H       -1.9306034101    1.3223805760   -1.0288196849
H       -1.5681219702    1.1613675412   -2.7709268218
H       -2.1277141936   -1.6283173432   -0.4115842004
H       -0.3770894768   -1.9091113804   -0.1218294706
H       -1.1739914816   -0.4492136552    0.5363721382
H        1.9363882189   -1.2017172861   -3.5742540910
H        3.3589420501   -1.0725554497   -2.5353070639
H        2.4496368968   -3.0818919967   -2.0758278898
22   
torsion grid (-120,)
C        1.7888876372   -0.2246515096   -1.6617669628
C        0.5926999937    0.1535527210   -1.2111658303
C       -0.7580975193   -1.7978574230   -2.1017590113
C       -1.6449912362    0.5043530818   -2.0776618610
C       -1.2880437556   -0.7174251100    0.0327308614
C        2.2237429628   -1.3192626462   -2.6135743450
N       -0.7446136538   -0.4840183543   -1.3635619368
O        1.5593490925   -1.1100177946   -3.8669095652
H        2.5808711621    0.4465113886   -1.3370520786
H        0.5072242271    1.0357228629   -0.5847261549
H       -1.7937446934   -2.1320838552   -2.1641938010
H       -0.3346328357   -1.6574648240   -3.0940865183
H       -0.1766081838   -2.5216219999   -1.5325720298
H       -2.6552767283    0.0950146422   -2.1121397844
H       -1.6410237233    1.4458240276   -1.5290004062
H       -1.2556716632    0.6539341768   -3.0843239699
H       -2.2842297974   -1.1528507111   -0.0503713994
H       -0.6168576166   -1.3968618362    0.5569830703
H       -1.3415988509    0.2349726057    0.5596997979
H        3.3085867522   -1.2520737651   -2.7327878764
H        2.0009147822   -2.3146631693   -2.2086504740
H        2.0602449134   -1.5589746773   -4.5680156439
22   
torsion grid (-105,)
C        1.7909874839   -0.2680872626   -1.5813021596
C        0.6069190632    0.0571452579   -1.0624509273
C       -0.7260743595   -1.9048662666   -1.9406835564
C       -1.5197041493    0.4323502548   -2.1897109612
C       -1.4319843539   -0.6408493698    0.0260672555
C        2.1739675764   -1.1745440993   -2.7281226603
N       -0.7385048142   -0.5312892918   -1.3178306250
O        1.3182005633   -0.8892550459   -3.8439227874
H        2.6090972030    0.3032725897   -1.1485808597
H        0.5433472495    0.8242115490   -0.2982434920
H       -1.7567533557   -2.2564626111   -1.9892794890
H       -0.3000886759   -1.8388023381   -2.9382213890
H       -0.1400484943   -2.5659855557   -1.3027483408
H       -2.5377883130    0.0564630122   -2.3012150677
H       -1.5289391423    1.4092717051   -1.7067999413
H       -1.0190643621    0.4925873095   -3.1553922899
H       -2.4301318884   -1.0494251577   -0.1305296879
H       -0.8475818696   -1.3007370330    0.6669685080
H       -1.5040790000    0.3498536281    0.4740912499
H        3.2185383411   -0.9741372277   -2.9827502590
H        2.1049657904   -2.2312879941   -2.4346970667
H        1.7267769859   -1.2437824218   -4.6511407378
22   
torsion grid (-90,)
C        1.8128687358   -0.3127307358   -1.5498353147
C        0.6501957513   -0.0534782745   -0.9496607275
C       -0.7263642082   -1.9733513135   -1.8095446388
C       -1.3771554279    0.3892861874   -2.2636990169
C       -1.5150040867   -0.5458432602    0.0063802668
C        2.1751790439   -1.0351605295   -2.8211705382
N       -0.7153953458   -0.5576214506   -1.2798599158
O        1.1592919101   -0.8456056182   -3.8121884548
H        2.6591780161    0.1419431311   -1.0389725034
H        0.6308076054    0.5711154865   -0.0641354267
H       -1.7659876017   -2.2912379836   -1.8922811935
H       -0.2501944899   -1.9892366877   -2.7852282053
H       -0.1964463398   -2.6070083243   -1.0986025994
H       -2.4029279642    0.0561917052   -2.4291864034
H       -1.3693648817    1.3906353805   -1.8335231782
H       -0.8032369255    0.3668054367   -3.1880408964
H       -2.5228630369   -0.9001553377   -0.2076152200
H       -1.0292795455   -1.2029149711    0.7278446297
H       -1.5559656280    0.4723905031    0.3926784435
H        3.1298730811   -0.6285333569   -3.1704887413
H        2.3331258630   -2.1036808138   -2.6105050297
H        1.5074475498   -1.1270280574   -4.6744312229
22   
torsion grid (-75,)
C        1.7925201365   -0.3614210548   -1.5720476467
C        0.6556239249   -0.2100147904   -0.8884985537
C       -0.8188346027   -2.0437375026   -1.7320839133
C       -1.3000229779    0.3398792511   -2.2999473043
C       -1.5838601561   -0.4883111334   -0.0092502583
C        2.1755531392   -0.8476475498   -2.9375346446
N       -0.7367145279   -0.6079758877   -1.2578198792
O        1.0586892431   -0.9961848419   -3.8102674251
H        2.6600445392   -0.0177245366   -1.0101100085
H        0.6911883895    0.2246863737    0.1030139193
H       -1.8704800105   -2.2878089183   -1.8875777488
H       -0.2645667508   -2.1378329108   -2.6609674489
H       -0.3944905493   -2.6807630128   -0.9563184640
H       -2.3427951725    0.0735637712   -2.4792282121
H       -1.2298542899    1.3547717209   -1.9091873947
H       -0.7103546233    0.2366779378   -3.2075797840
H       -2.6055327110   -0.7769493486   -0.2535207166
H       -1.1806063611   -1.1515257383    0.7560428970
H       -1.5634017240    0.5448742874    0.3372785076
H        2.8882707668   -0.1174976827   -3.3437234281
H        2.7213016715   -1.7963785701   -2.8194659837
H        1.3821790704   -1.2349017161   -4.6945335366
22   
torsion grid (-60,)
C        1.7891598039   -0.3786063205   -1.5775375121
C        0.6758395049   -0.3478415447   -0.8407009307
C       -0.8972575866   -2.0821460809   -1.6687227831
C       -1.2065197368    0.2983308747   -2.3326173519
C       -1.6063992602   -0.4106174369   -0.0208281062
C        2.1556181054   -0.6952887507   -2.9946876859
N       -0.7362973575   -0.6372748407   -1.2359087183
O        1.0492413923   -1.0980842563   -3.7950217553
H        2.6711515762   -0.1065045218   -0.9985314700
H        0.7455272415   -0.0725547782    0.2045289062
H       -1.9550158931   -2.2631800591   -1.8652241340
H       -0.3052135135   -2.2407778794   -2.5657970890
H       -0.5489994977   -2.7201175285   -0.8566407405
H       -2.2623423600    0.0980512855   -2.5205185923
H       -1.0724961514    1.3224827313   -1.9848377308
H       -0.6145761296    0.1114302269   -3.2239992218
H       -2.6412556561   -0.6184956182   -0.2904235087
H       -1.2872450995   -1.0837159722    0.7749576518
H       -1.5061594755    0.6267413527    0.2986462016
H        2.6395151620    0.2004290091   -3.4113167704
H        2.9217167983   -1.4834540576   -2.9579862980
H        1.3664137876   -1.2952060304   -4.6917209952
22   
torsion grid (-45,)
C        1.7902916688   -0.3941897117   -1.5660039912
C        0.6886181373   -0.4930482999   -0.8182976011
C       -0.9861829255   -2.1166062505   -1.6225688266
C       -1.1209296659    0.2422887854   -2.3801188124
C       -1.6057405944   -0.3299104630   -0.0470308191
C        2.1191927086   -0.5295258019   -3.0239915972
N       -0.7355112825   -0.6699542576   -1.2341719960
O        1.0965930644   -1.1979732612   -3.7597681260
H        2.6779698271   -0.2020255423   -0.9650361337
H        0.7720033574   -0.3920266995    0.2572132402
H       -2.0473890926   -2.2336824325   -1.8476423915
H       -0.3745299867   -2.3438406257   -2.4922884451
H       -0.7063268625   -2.7495141600   -0.7804693127
H       -2.1894842913    0.1205757618   -2.5615871728
H       -0.9046981334    1.2689449676   -2.0845064167
H       -0.5511082071   -0.0400254973   -3.2598349370
H       -2.6494345918   -0.4526531104   -0.3344581593
H       -1.3663017476   -1.0043104305    0.7751375842
H       -1.4164896296    0.7032805532    0.2445886450
H        2.3140483731    0.4755217382   -3.4290400333
H        3.0622000007   -1.0876734213   -3.0845576970
H        1.4109376144   -1.3482694485   -4.6665379549
22   
torsion grid (-30,)
C        1.8274613491   -0.4249374504   -1.5065899684
C        0.7308476396   -0.6485509942   -0.7812250731
C       -1.0394614652   -2.1512368303   -1.5501915068
C       -1.0071914682    0.1642786255   -2.4073291550
C       -1.5473710729   -0.2516359102   -0.0528548649
C        2.0674401444   -0.3205519358   -2.9919696231
N       -0.6957500116   -0.7100484123   -1.2140231422
O        1.2594936792   -1.2796580144   -3.6858307388
H        2.7278258766   -0.3728099249   -0.8981830495
H        0.8132078507   -0.7731605018    0.2925981152
H       -2.1002130622   -2.2056090771   -1.8001497868
H       -0.4207192125   -2.4535321953   -2.3928696418
H       -0.8254887393   -2.7696669674   -0.6783890879
H       -2.0853372843    0.1378477260   -2.5672056033
H       -0.6897230161    1.1820024265   -2.1798469594
H       -0.4887975874   -0.2275107940   -3.2771349979
H       -2.5951315000   -0.3072888491   -0.3468550758
H       -1.3681451437   -0.9043665727    0.8013282763
H       -1.2782323841    0.7752449751    0.1949550095
H        1.8576498118    0.7020231039   -3.3389134618
H        3.1293231503   -0.5142297685   -3.1719714653
H        1.5934810024   -1.3721026746   -4.5935336902
22   
torsion grid (-15,)
C        1.8248718587   -0.4938586473   -1.5188750645
C        0.7336828088   -0.8046164795   -0.8189600872
C       -1.1636630040   -2.1880246656   -1.4297895852
C       -0.9960299230    0.0341291465   -2.4615684877
C       -1.4730766946   -0.1483579092   -0.0606945517
C        2.0311183848   -0.1741565393   -2.9823224672
N       -0.7032934667   -0.7577128343   -1.2106937751
O        1.3860530894   -1.1898119901   -3.7647527954
H        2.7355064240   -0.5828322624   -0.9307745981
H        0.8266463235   -1.1057022654    0.2192274729
H       -2.2339423342   -2.1824339057   -1.6412151110
H       -0.6025131985   -2.5951166691   -2.2698409141
H       -0.9624004297   -2.7636614195   -0.5262735339
H       -2.0763157320    0.0343905893   -2.6075487051
H       -0.6458593027    1.0557291830   -2.3147062984
H       -0.4971765484   -0.4358037329   -3.3049976606
H       -2.5316953688   -0.1342055030   -0.3198590819
H       -1.3187317329   -0.7522192722    0.8332764756
H       -1.1080962854    0.8653393238    0.1036873902
H        1.6416472118    0.8228240295   -3.2287569350
H        3.1068725439   -0.1619966057   -3.1778650083
H        1.7611019639   -1.1818616316   -4.6610905195
22   
torsion grid (0,)
C        1.8300463022   -0.5553203599   -1.5718649160
C        0.7394864798   -0.9417431692   -0.9097839509
C       -1.2767684414   -2.2120494786   -1.3190074215
C       -0.9919087417   -0.1258573528   -2.5686128485
C       -1.3769926935   -0.0395293812   -0.1397952513
C        2.0377041964    0.0140605299   -2.9598527584
N       -0.7030316270   -0.8086459612   -1.2554273551
O        1.5623389334   -0.9495225597   -3.9094240427
H        2.7425301837   -0.7759280972   -1.0224276449
H        0.8383307869   -1.3973555530    0.0704609418
H       -2.3515541155   -2.1428679066   -1.4906310972
H       -0.7891428249   -2.7413757361   -2.1368896182
H       -1.0815464040   -2.7183318658   -0.3738330500
H       -2.0702466336   -0.1522150360   -2.7255864403
H       -0.6614908211    0.9098304473   -2.5039685073
H       -0.4692825599   -0.6470759594   -3.3678967067
H       -2.4428540160    0.0288586423   -0.3594312703
H       -1.2238242942   -0.5677585131    0.8011080677
H       -0.9330351250    0.9540328976   -0.0870217583
H        1.5240279491    0.9759404512   -3.0810771920
H        3.1073697334    0.1972218614   -3.0935068189
H        1.9857265333   -0.7818768084   -4.7677128653
22   
torsion grid (15,)
C        1.8208285155   -0.8648431601   -1.5606990884
C        0.6738587934   -1.1836383392   -0.9607473056
C       -1.4672666158   -2.3119505928   -1.0961725817
C       -0.8761525713   -0.7744835026   -2.9157343410
C       -1.3489922055    0.1260407923   -0.6801565052
C        2.1218530638   -0.0849583358   -2.8206885332
N       -0.7304565099   -1.0365121754   -1.4367707675
O        1.3944012152    1.1513129217   -2.7731332499
H        2.6902637283   -1.1456210071   -0.9705824584
H        0.6891950948   -1.6686930719    0.0096355203
H       -2.5060160919   -2.2076230080   -1.4095262431
H       -0.9925116895   -3.1394212127   -1.6232075282
H       -1.4200750493   -2.4765261884   -0.0198945301
H       -1.9419031941   -0.7402760472   -3.1422537288
H       -0.4041333474    0.1742999469   -3.1567784568
H       -0.4120032218   -1.5965044265   -3.4604507204
H       -2.4008401772    0.2043683940   -0.9588548263
H       -1.2568050167   -0.0631277869    0.3893630550
H       -0.8049997372    1.0294651757   -0.9525011098
H        3.1986843093    0.1022436491   -2.8539925127
H        1.8615592929   -0.6638794210   -3.7170537780
H        1.7946661102    1.7756632553   -3.4010398865
22   
torsion grid (30,)
C        1.8393071173   -0.9192806385   -1.5921115752
C        0.7010685001   -1.3242284060   -1.0271788297
C       -1.5351127131   -2.2608631315   -1.0036165697
C       -0.8736245086   -0.9204107460   -2.9462827155
C       -1.2114302581    0.1772760670   -0.7603485525
C        2.1376099582    0.0346921906   -2.7216203244
N       -0.7079585631   -1.0782660358   -1.4519400863
O        1.2429253137    1.1529532903   -2.6656097771
H        2.7194286160   -1.3130869013   -1.0882908466
H        0.7333694140   -1.9612150158   -0.1504738724
H       -2.5719943102   -2.0888800416   -1.2910766942
H       -1.1525944586   -3.1595193145   -1.4877923875
H       -1.4631246267   -2.3571881876    0.0795949193
H       -1.9414451856   -0.8632677040   -3.1587706605
H       -0.3784492598   -0.0072284518   -3.2620242748
H       -0.4436000007   -1.7953319122   -3.4340198309
H       -2.2624607649    0.3174012945   -1.0178931027
H       -1.1014089575    0.0462579446    0.3162242758
H       -0.6067981247    1.0134430307   -1.1061455411
H        3.1737425855    0.3686812669   -2.6103208385
H        2.0634721383   -0.4864354596   -3.6875245963
H        1.5923238213    1.8619894098   -3.2305935217
22   
torsion grid (45,)
C        1.8083599097   -0.9038803144   -1.6600818682
C        0.6791733199   -1.4148743846   -1.1637584979
C       -1.6025095428   -2.2116460508   -0.9527616245
C       -0.9778496698   -1.0032290806   -2.9911433552
C       -1.1518110019    0.2050975376   -0.8309636072
C        2.1649779128    0.2117055497   -2.5984651391
N       -0.7417862256   -1.0962050724   -1.4979771623
O        1.0934982565    1.1329255612   -2.7914681552
H        2.6928984532   -1.3951261729   -1.2571776051
H        0.7393367117   -2.2166903424   -0.4375662984
H       -2.6436107966   -1.9951151156   -1.1898250348
H       -1.2997890252   -3.1500913081   -1.4175383258
H       -1.4724958412   -2.2663035510    0.1280807643
H       -2.0469047128   -0.8613006001   -3.1540120186
H       -0.4181287005   -0.1596036251   -3.3826950763
H       -0.6494743623   -1.9379053408   -3.4458007673
H       -2.2116549027    0.3738560271   -1.0278876954
H       -0.9770510057    0.1092514132    0.2406217847
H       -0.5443769064    1.0046338164   -1.2480228368
H        3.0356639088    0.7214860199   -2.1666210697
H        2.4917597541   -0.2301537460   -3.5524573526
H        1.4162116536    1.8821587057   -3.3188589813
22   
torsion grid (60,)
C        1.8121877904   -0.9224270707   -1.6784388014
C        0.6844661678   -1.5192016841   -1.2841010384
C       -1.6173752168   -2.1791666020   -0.8952861493
C       -1.0482464572   -1.0902098492   -3.0160531146
C       -1.0563020990    0.2078481257   -0.8905232700
C        2.1894167997    0.2992700801   -2.4582551002
N       -0.7366316165   -1.1284967415   -1.5325118629
O        1.0724570792    1.0679118339   -2.8922402093
H        2.6987692343   -1.4593991590   -1.3425521288
H        0.7485073485   -2.4280479065   -0.6984043590
H       -2.6590258897   -1.9093880243   -1.0655286127
H       -1.4034440255   -3.1454962417   -1.3520254470
H       -1.4121573507   -2.2129068406    0.1747215049
H       -2.1129923655   -0.8841008536   -3.1343535781
H       -0.4513149936   -0.3071453111   -3.4747450386
H       -0.8026027012   -2.0641147368   -3.4390414166
H       -2.1196595141    0.4076386618   -1.0305986838
H       -0.8213835521    0.1388006597    0.1714732814
H       -0.4532323901    0.9734721948   -1.3706978911
H        2.8517304755    0.8968524276   -1.8150945185
H        2.7941409536   -0.0369424392   -3.3134800784
H        1.3961227527    1.8465477249   -3.3744133365
22   
torsion grid (75,)
C        1.8145379494   -0.9234267672   -1.6861416221
C        0.6827951562   -1.5754650116   -1.4091901619
C       -1.6011038098   -2.1209777586   -0.8159207718
C       -1.1460482587   -1.1412276253   -3.0173241375
C       -0.9734158709    0.2375367525   -0.9422341518
C        2.1803428856    0.3876036932   -2.3146316105
N       -0.7346327834   -1.1255630657   -1.5570826379
O        1.0822967942    1.0182897393   -2.9685683631
H        2.6985732617   -1.4996682076   -1.4161042278
H        0.7384829588   -2.5660958733   -0.9745880749
H       -2.6416580673   -1.8116024027   -0.9071821874
H       -1.4677776158   -3.1080697492   -1.2584661380
H       -1.3055192591   -2.1343059921    0.2331770487
H       -2.2069660076   -0.8939233240   -3.0784330194
H       -0.5441891080   -0.4076206314   -3.5481235315
H       -0.9669689595   -2.1419828072   -3.4097871418
H       -2.0412218184    0.4518932122   -1.0018179823
H       -0.6538879557    0.1992290838    0.0989691514
H       -0.4048201559    0.9767891981   -1.4981898634
H        2.6049687150    1.0333131239   -1.5306590836
H        2.9877148891    0.1800204184   -3.0295867698
H        1.4030567498    1.8172186624   -3.4184392854
22   
torsion grid (90,)
C        1.8402016300   -0.9728101823   -1.7007506954
C        0.6985800447   -1.6482607309   -1.5604599703
C       -1.5397478556   -2.0857830701   -0.7584371349
C       -1.2174599216   -1.2070871907   -3.0326029256
C       -0.8703519065    0.2448298586   -1.0370193634
C        2.1533471093    0.4449231227   -2.1027043055
N       -0.7063957197   -1.1461556947   -1.6051541076
O        1.2005273025    0.9158425616   -3.0620727784
H        2.7182602813   -1.5964799203   -1.5458678831
H        0.7260528158   -2.7086256581   -1.3379261320
H       -2.5753141581   -1.7478669434   -0.7810182458
H       -1.4709292450   -3.0929729198   -1.1689268285
H       -1.1594239120   -2.0686424401    0.2629524974
H       -2.2700858853   -0.9198456991   -3.0366123021
H       -0.6213036007   -0.5213197243   -3.6314531995
H       -1.1026369653   -2.2287634253   -3.3942361097
H       -1.9373883092    0.4644249680   -0.9929436835
H       -0.4441296027    0.2555014888   -0.0340158608
H       -0.3678910389    0.9538967671   -1.6879578282
H        2.1737396725    1.0892066669   -1.2107453486
H        3.1610902635    0.4510665876   -2.5307270089
H        1.5394941405    1.7327113994   -3.4642015963
22   
torsion grid (105,)
C        1.8378405011   -0.9912945454   -1.7722904149
C        0.6901248593   -1.6683781491   -1.7359585490
C       -1.4457366904   -2.0560166494   -0.6790495939
C       -1.3458416685   -1.3236773327   -3.0289052293
C       -0.8524619461    0.2585727281   -1.1828380598
C        2.1346886116    0.4791525091   -1.9548050693
N       -0.7108574418   -1.1649925067   -1.6612834535
O        1.3468861540    0.9754822134   -3.0465762513
H        2.7090661116   -1.6423221453   -1.7589824147
H        0.7024091672   -2.7525277136   -1.7056791019
H       -2.4825800040   -1.7256945706   -0.6190134952
H       -1.4059516432   -3.0866428356   -1.0307286375
H       -0.9635883393   -1.9731964876    0.2948056307
H       -2.3994891042   -1.0494413022   -2.9593569925
H       -0.8182735931   -0.6693677073   -3.7219728102
H       -1.2465100237   -2.3633370598   -3.3402745193
H       -1.9171749969    0.4714984391   -1.0862626068
H       -0.3691705417    0.3434715081   -0.2098569346
H       -0.3965177165    0.9252150855   -1.9098657545
H        1.9306828353    1.0392379337   -1.0316634329
H        3.2016068021    0.5840640077   -2.1708838038
H        1.7385917699    1.8058549206   -3.3645797607
22   
torsion grid (120,)
C        1.8118906694   -0.9942922607   -1.8600232974
C        0.6517627459   -1.6493697350   -1.9047113383
C       -1.3535280540   -1.9754264268   -0.5939402044
C       -1.5035852697   -1.4501971813   -2.9975368047
C       -0.8797391343    0.2988756768   -1.3735510228
C        2.1511871458    0.4790604957   -1.7759472135
N       -0.7429371931   -1.1615448396   -1.7184407602
O        1.5551441689    1.1380067747   -2.9013864737
H        2.6632790429   -1.6571902596   -1.9973551330
H        0.6459836977   -2.7249486243   -2.0497775724
H       -2.3910350780   -1.6658707755   -0.4650322725
H       -1.3105230452   -3.0329124371   -0.8535796059
H       -0.7839728953   -1.7909030728    0.3162832502
H       -2.5505051468   -1.1829653325   -2.8494476694
H       -1.0637425112   -0.8545351202   -3.7969563551
H       -1.4167951231   -2.5117033082   -3.2279401975
H       -1.9436750250    0.5229133569   -1.2955861128
H       -0.4001135816    0.4749011732   -0.4118450619
H       -0.4128929720    0.8977534193   -2.1527839012
H        1.8053108689    0.9173031927   -0.8310554743
H        3.2400383590    0.5766922927   -1.8006438911
H        2.0144737288    1.9809132108   -3.0519759412
22   
torsion grid (135,)
C        1.6791148185    0.0421857474   -2.0556639569
C        0.3938264383    0.3184817409   -2.2769441462
C       -1.4092023579   -1.1296809808   -3.0476491961
C       -1.8084752594    0.6234926220   -1.3285216124
C       -0.6079972033   -1.4057502029   -0.7299871597
C        2.3677098681   -1.1777879123   -1.4875417250
N       -0.8318925864   -0.4115656982   -1.8459870470
O        1.8389860701   -2.3433205962   -2.1363193478
H        2.3435883593    0.8071382994   -2.4511067607
H        0.1205999742    1.2262625463   -2.8046517451
H       -2.3481250851   -1.6022546149   -2.7554959500
H       -1.5855485714   -0.4014471950   -3.8394859881
H       -0.6829267260   -1.8735296994   -3.3727591843
H       -2.7220046205    0.1159512598   -1.0189845416
H       -1.3521457177    1.1376166564   -0.4832497221
H       -2.0330025599    1.3350035079   -2.1232889171
H       -1.5795755708   -1.8121099733   -0.4488739130
H        0.0471341033   -2.1973010892   -1.0840111999
H       -0.1696784429   -0.8794532180    0.1173315677
H        3.4396432829   -1.0815009551   -1.6815707480
H        2.2356503421   -1.2354304367   -0.3984259311
H        2.4563271347   -3.0823270358   -2.0059076466
22   
torsion grid (150,)
C        1.6946016046    0.0708586490   -2.0044109001
C        0.4114336168    0.4094802727   -2.1379936311
C       -1.2473881417   -1.1760818468   -3.0179591508
C       -1.8922568667    0.6166962499   -1.4293446890
C       -0.6278488975   -1.2961325393   -0.6186886345
C        2.3823050339   -1.2234714233   -1.6525343867
N       -0.8138246436   -0.3755142018   -1.8061603543
O        1.6635057224   -2.3321677597   -2.2057842700
H        2.3710553548    0.8828057355   -2.2630469347
H        0.1517895613    1.4000590003   -2.4937154778
H       -2.1806320088   -1.6887143240   -2.7794386424
H       -1.3970957997   -0.4878402008   -3.8500242429
H       -0.4559056742   -1.8866302232   -3.2479865776
H       -2.8005273438    0.0671362600   -1.1838936776
H       -1.5522943964    1.1910901626   -0.5678718558
H       -2.0800031263    1.2801180419   -2.2737518718
H       -1.6009000830   -1.7198255583   -0.3693068004
H        0.0666131538   -2.0860351190   -0.8882619017
H       -0.2523548520   -0.7051137980    0.2163537833
H        3.3958918203   -1.1820763129   -2.0637367163
H        2.4763154727   -1.3143436359   -0.5600312743
H        2.2304122299   -3.1204842055   -2.1724796086
22   
torsion grid (165,)
C        1.6869459301    0.0128325862   -1.9481840062
C        0.4105801947    0.4044512239   -1.9608524547
C       -1.1555267485   -1.2204682615   -2.9781252411
C       -1.9616738952    0.5816889299   -1.4989232405
C       -0.7353924150   -1.2855588265   -0.5250604269
C        2.4137723672   -1.2952712816   -1.8473355490
N       -0.8340824148   -0.3947020893   -1.7482949548
O        1.5634059502   -2.4201318942   -2.0566501453
H        2.3745029695    0.8478842942   -2.0756927415
H        0.1834639031    1.4541581545   -2.1029547359
H       -2.1066843819   -1.7287931928   -2.8124607608
H       -1.2309307473   -0.5463373414   -3.8313524792
H       -0.3506279134   -1.9365007309   -3.1248946362
H       -2.8784540349    0.0182345104   -1.3289325478
H       -1.7208653019    1.1806037749   -0.6208272961
H       -2.0785848972    1.2228143444   -2.3729115692
H       -1.7069834927   -1.7571701374   -0.3730141668
H        0.0288930026   -2.0367320615   -0.6989916691
H       -0.4822355293   -0.6592688199    0.3300543395
H        3.2119516000   -1.2710440026   -2.6008106746
H        2.9037244580   -1.3398986011   -0.8624626743
H        2.1068118656   -3.2252141112   -2.0686946135
22   
torsion grid (180,)
C        1.6893094347    0.0024418250   -1.9359327303
C        0.4252018738    0.4148282082   -1.8122653311
C       -1.0549104695   -1.2312536412   -2.9423971504
C       -1.9835673597    0.5845245329   -1.5834212099
C       -0.8213147593   -1.2588441412   -0.4617882043
C        2.4102745974   -1.3076300427   -2.0182579038
N       -0.8313730499   -0.3870370313   -1.7027198530
O        1.5495003663   -2.4393511977   -1.9505332851
H        2.3885970767    0.8360809689   -1.9929279619
H        0.2202922525    1.4779166275   -1.7811857134
H       -2.0203718270   -1.7298976552   -2.8450784125
H       -1.0572836526   -0.5687420620   -3.8077499927
H       -0.2512245893   -1.9586392988   -3.0143754347
H       -2.9098723957    0.0170313628   -1.5013664017
H       -1.8415064205    1.1957437785   -0.6921258359
H       -2.0105468650    1.2138583142   -2.4730301688
H       -1.7894789459   -1.7561430038   -0.3875390173
H       -0.0204992484   -1.9866016149   -0.5580697243
H       -0.6593396984   -0.6155245613    0.4028713705
H        2.9806353429   -1.3017798074   -2.9587913928
H        3.1454045890   -1.3216867264   -1.2002297098
H        2.0875421346   -3.2462446155   -2.0048816678
