24
0 1 C11H11NO
C                    -2.313545196366    -4.045092369217     0.912472049135
C                    -1.149791957008    -3.311042127062     0.532146191161
C                    -3.449191918443    -3.343326625423     1.197450767873
C                    -1.128087012865    -1.941528886421     0.442659610158
C                    -2.341927229761    -1.178385280280     0.746411525458
C                    -0.088324656018     0.900695120351    -1.335705574472
C                     0.604589313027     1.046791962788     1.066591159876
C                    -0.074079046754    -0.433099632256    -1.261492571799
C                     0.620372621306    -0.286681801506     1.146081382282
C                     0.095552624038     1.791367073988    -0.137389469565
C                     0.130855035906    -1.189256448183     0.033778524380
N                    -3.442114866473    -1.979940055649     1.112559450640
O                    -2.480689437928     0.046647637884     0.712003057943
H                    -2.306729198097    -5.126854695758     0.976241236837
H                    -0.239183617092    -3.862252006614     0.302952328535
H                    -4.384460403220    -3.806163762623     1.495398275936
H                    -0.258723887771     1.384305701635    -2.296461996020
H                     0.954591597003     1.640173355411     1.910013970477
H                    -0.237073274251    -1.036262055977    -2.153322084709
H                     0.975168430586    -0.780625647350     2.049339254947
H                    -0.872037009914     2.251726000226     0.113702550388
H                     0.771100944401     2.622731915081    -0.382811445666
H                     0.894073541789    -1.961717785482    -0.139384652861
H                    -4.281554015156    -1.448976321549     1.322426136959
