22
0 1 C9H11NO
C                     4.628991133771     2.528758810932    -1.847770776389
C                     4.150519593467     2.565325305446    -3.159670636693
C                     4.223712617650     3.521390475770    -0.952967181720
C                     3.278364571744     3.599503011767    -3.513912651438
C                     3.351415887562     4.516797521616    -1.408233052478
C                     3.524545753098     7.748563917670     0.434564918660
C                     3.494038755696     7.013282301312    -0.910876463426
C                     3.879301180865     6.610697249568     1.395551537586
C                     2.891282433150     5.650077260488    -0.517528506816
N                     2.879666268403     4.555909406139    -2.665968915882
O                     3.266518945175     5.427381424128     0.852289592816
H                     5.303264216433     1.738661796404    -1.525941754815
H                     4.436587136651     1.814055541604    -3.890378823132
H                     4.554274973531     3.535579214359     0.079562650891
H                     2.878525817429     3.660332408393    -4.525511678539
H                     4.249494131354     8.566882556105     0.464416588297
H                     2.535916144377     8.155461694888     0.672841801185
H                     2.903216543440     7.510368533727    -1.682114210719
H                     4.509871364527     6.874478595068    -1.296610565410
H                     4.967680270455     6.464276974019     1.449711814370
H                     3.496962480952     6.756354795543     2.410298671664
H                     1.795676820194     5.699754845370    -0.575123948047
