24
0 1 C11H10N2O
C                     4.323381986382    -6.202536067051    -1.897036444438
C                    -0.401434133645    -1.496513670368    -1.186574234114
C                     4.762819621716    -6.283781268634    -0.574329774764
C                     2.998281943436    -5.837629480477    -2.145224577989
C                    -0.173374816375    -2.815809353702    -1.683398941860
C                    -0.018497849783    -1.131850865152     0.075403640814
C                     3.850628877895    -5.992875738677     0.443619527034
C                     2.153933993485    -5.573455099187    -1.060886698338
C                     0.435987960848    -3.728421269666    -0.861410290132
C                     0.644566095367    -2.072862219149     0.962434368398
C                     0.707412572643    -5.163368055589    -1.256669449614
N                     2.576231187374    -5.650794909454     0.214228948071
N                     0.807034283675    -3.353940131650     0.399471060822
O                     1.051094692105    -1.843177989168     2.105171562380
H                     4.999626100693    -6.415983335714    -2.720763422136
H                    -0.889198142187    -0.768339052120    -1.831228945497
H                     5.784171506520    -6.561427856111    -0.331609248323
H                     2.622897859762    -5.757032129386    -3.161437723444
H                    -0.476788471018    -3.101644693926    -2.684144221571
H                    -0.181284946736    -0.132194330509     0.463919309888
H                     4.153003408416    -6.035846214084     1.488333342123
H                     0.410035628741    -5.299971723455    -2.297846074890
H                     0.080792585731    -5.821615779024    -0.642673614784
H                     1.320481008535    -4.029509402139     0.968147497859
