24
0 1 C10FH12N
C                     5.664287256126    -2.357988715915     1.886542172420
C                     5.284032329066    -1.301548132751     2.719433282299
C                     4.662248392140    -3.065582171912     1.220309074915
C                     3.929252911292    -1.029135483603     2.820327796817
C                     2.965879602602    -1.779414019153     2.130777759674
C                     0.957886894622    -1.013461355166    -0.091734885635
C                     0.353901055285    -2.397760098121     0.264226282991
C                     1.130803856290    -0.292167760482     1.256447401564
C                     0.565149005251    -2.580328749394     1.792888707182
C                     1.496530424119    -1.434386831766     2.240896796076
N                     3.356207317324    -2.789493778482     1.338427212243
F                     3.523271504958    -0.002947040804     3.615627813975
H                     6.709560210440    -2.624605519913     1.761060031487
H                     6.003983311207    -0.705966278408     3.273224647038
H                     4.917196706347    -3.894809840879     0.562677668301
H                     1.935382620121    -1.145868901757    -0.565839592095
H                     0.333650570581    -0.443221284141    -0.786638105900
H                    -0.711120337437    -2.440559612247     0.014146192742
H                     0.853445829146    -3.191708358553    -0.295358900150
H                     1.876833755019     0.507975080128     1.231498495284
H                     0.181225049168     0.152234753028     1.577899659549
H                    -0.387273044565    -2.475774043112     2.323310500317
H                     0.976301716500    -3.561512226207     2.038531768230
H                     1.297028260858    -1.128466364132     3.272003591791
