18
0 1 C8ClH6N3
C                    -2.308783464029    -2.596618183924     2.803326338475
C                    -1.749973784798    -1.562881208135     3.553901276765
C                    -1.529182457220    -4.390649077781     8.757798655078
C                    -2.586856684757    -3.799052430553     3.453917333348
C                    -1.739273334756    -3.000104583211     8.975167566089
C                    -1.538867913622    -4.535829321788     7.388029096871
C                    -1.504383800225    -1.750357178979     4.915558918756
C                    -1.881194021773    -2.981325888499     5.493077928150
N                    -2.389478765822    -3.977942797493     4.762594795486
N                    -1.862266988105    -2.330725971698     7.834733742919
N                    -1.726570044222    -3.280367518070     6.863839190908
Cl                   -0.678127043245    -0.480821198246     5.778738608143
H                    -2.506416245292    -2.476334484113     1.742730100216
H                    -1.478060218553    -0.618427884473     3.092732513599
H                    -1.388149803647    -5.168780824064     9.495375741632
H                    -2.993310085412    -4.650272138176     2.911472628695
H                    -1.811721885980    -2.464783953215     9.914144731137
H                    -1.439207995995    -5.396660692051     6.744432327151
