
  -OEChem-12122420533D

 17 18  0     0  0  0  0  0  0999 V2000
    1.4239   -0.0974    1.5860 C   0  0  0  0  0  0  0  0  0  0  0  0
    0.2154   -0.3947    0.9530 C   0  0  0  0  0  0  0  0  0  0  0  0
    1.6832   -0.6609    2.8343 C   0  0  0  0  0  0  0  0  0  0  0  0
   -0.6779   -1.2493    1.6097 C   0  0  0  0  0  0  0  0  0  0  0  0
    0.5404   -3.1782    6.6414 C   0  0  0  0  0  0  0  0  0  0  0  0
    1.8942   -3.0373    6.8067 C   0  0  0  0  0  0  0  0  0  0  0  0
    0.7239   -1.5135    3.4092 C   0  0  0  0  0  0  0  0  0  0  0  0
    0.9531   -2.1402    4.7285 C   0  0  0  0  0  0  0  0  0  0  0  0
   -0.4414   -1.8021    2.8021 N   0  0  0  0  0  0  0  0  0  0  0  0
    0.0224   -2.6754    5.4749 N   0  0  0  0  0  0  0  0  0  0  0  0
    2.5713   -2.2353    5.4337 S   0  0  0  0  0  0  0  0  0  0  0  0
    2.1487    0.5660    1.1217 H   0  0  0  0  0  0  0  0  0  0  0  0
   -0.0343    0.0209   -0.0189 H   0  0  0  0  0  0  0  0  0  0  0  0
    2.6062   -0.4299    3.3581 H   0  0  0  0  0  0  0  0  0  0  0  0
   -1.6316   -1.5048    1.1494 H   0  0  0  0  0  0  0  0  0  0  0  0
   -0.1240   -3.6483    7.3588 H   0  0  0  0  0  0  0  0  0  0  0  0
    2.5118   -3.3565    7.6360 H   0  0  0  0  0  0  0  0  0  0  0  0
  1  2  1  0  0  0  0
  1  3  2  0  0  0  0
  1 12  1  0  0  0  0
  2  4  2  0  0  0  0
  2 13  1  0  0  0  0
  3  7  1  0  0  0  0
  3 14  1  0  0  0  0
  4  9  1  0  0  0  0
  4 15  1  0  0  0  0
  5  6  2  0  0  0  0
  5 10  1  0  0  0  0
  5 16  1  0  0  0  0
  6 11  1  0  0  0  0
  6 17  1  0  0  0  0
  7  8  1  0  0  0  0
  7  9  2  0  0  0  0
  8 10  2  0  0  0  0
  8 11  1  0  0  0  0
M  END
$$$$
