27
1 1 C10H15N2
C                    -2.125960564273    -2.188969181446    -3.456267287630
C                    -3.149469306595    -1.250615831660    -3.589929592764
C                    -1.521916002142    -2.352455850671    -2.205387041993
C                    -3.526761116448    -0.512858771937    -2.462537394869
C                    -1.968695510890    -1.568301210463    -1.139044039770
C                    -2.451302163628    -2.107301251939     1.262446762978
C                    -0.748814916054    -0.334414956478     0.672033488288
C                    -1.940647901617    -2.118492476803     2.697159620823
C                    -0.239475675286    -0.346975707838     2.107202438679
C                    -1.368127039771    -1.682032590426     0.251217016902
N                    -2.953926986985    -0.662969804525    -1.261490762013
N                    -1.366887833746    -0.753773777486     3.042155406836
H                    -1.802397984615    -2.782826695972    -4.306489369209
H                    -3.647719702415    -1.088802378441    -4.540771080212
H                    -0.721574958207    -3.073991914354    -2.064183707602
H                    -4.320938193105     0.228248715086    -2.527197156066
H                    -2.816991683761    -3.111609233097     1.028926373936
H                    -3.308509357929    -1.430899580406     1.169929134289
H                    -1.496481501686     0.456057292319     0.541527481794
H                     0.092513442898    -0.081793995393     0.019925802736
H                    -2.730442110361    -2.328785436532     3.421735225486
H                    -1.125822266697    -2.831819874800     2.845068471865
H                     0.556564893627    -1.079865231532     2.261625789274
H                     0.113810629542     0.633078748229     2.435363933430
H                    -0.579957156350    -2.444340721003     0.234895360772
H                    -1.039199968474    -0.744663330333     4.014416892375
H                    -2.116886900228    -0.054845370768     2.978228878873
