
  -OEChem-12122420533D

 21 22  0     0  0  0  0  0  0999 V2000
   -0.0404    0.2389    1.8830 C   0  0  0  0  0  0  0  0  0  0  0  0
    0.3172   -0.7190    0.9321 C   0  0  0  0  0  0  0  0  0  0  0  0
    0.1949   -0.0321    3.2321 C   0  0  0  0  0  0  0  0  0  0  0  0
    0.9011   -1.9054    1.3826 C   0  0  0  0  0  0  0  0  0  0  0  0
    4.3868   -2.1563    6.2880 C   0  0  0  0  0  0  0  0  0  0  0  0
    4.4339   -2.9571    5.1676 C   0  0  0  0  0  0  0  0  0  0  0  0
    0.7794   -1.2528    3.5930 C   0  0  0  0  0  0  0  0  0  0  0  0
    2.4543   -1.9699    5.3519 C   0  0  0  0  0  0  0  0  0  0  0  0
    1.0299   -1.6078    5.0455 C   0  0  0  0  0  0  0  0  0  0  0  0
    1.1291   -2.1749    2.6750 N   0  0  0  0  0  0  0  0  0  0  0  0
    3.1511   -1.5445    6.3939 N   0  0  0  0  0  0  0  0  0  0  0  0
    3.1858   -2.8348    4.5850 N   0  0  0  0  0  0  0  0  0  0  0  0
   -0.4917    1.1804    1.5805 H   0  0  0  0  0  0  0  0  0  0  0  0
    0.1543   -0.5560   -0.1291 H   0  0  0  0  0  0  0  0  0  0  0  0
   -0.0654    0.6914    3.9992 H   0  0  0  0  0  0  0  0  0  0  0  0
    1.1994   -2.6762    0.6735 H   0  0  0  0  0  0  0  0  0  0  0  0
    5.1662   -1.9845    7.0193 H   0  0  0  0  0  0  0  0  0  0  0  0
    5.2108   -3.5793    4.7467 H   0  0  0  0  0  0  0  0  0  0  0  0
    0.7596   -0.7767    5.6986 H   0  0  0  0  0  0  0  0  0  0  0  0
    0.3745   -2.4504    5.3045 H   0  0  0  0  0  0  0  0  0  0  0  0
    2.8509   -3.2087    3.7023 H   0  0  0  0  0  0  0  0  0  0  0  0
  1  2  1  0  0  0  0
  1  3  2  0  0  0  0
  1 13  1  0  0  0  0
  2  4  2  0  0  0  0
  2 14  1  0  0  0  0
  3  7  1  0  0  0  0
  3 15  1  0  0  0  0
  4 10  1  0  0  0  0
  4 16  1  0  0  0  0
  5  6  2  0  0  0  0
  5 11  1  0  0  0  0
  5 17  1  0  0  0  0
  6 12  1  0  0  0  0
  6 18  1  0  0  0  0
  7  9  1  0  0  0  0
  7 10  2  0  0  0  0
  8  9  1  0  0  0  0
  8 11  2  0  0  0  0
  8 12  1  0  0  0  0
  9 19  1  0  0  0  0
  9 20  1  0  0  0  0
 12 21  1  0  0  0  0
M  END
$$$$
