21
0 1 C9H9N3
C                    -0.429057533299    -1.542528052468     1.351132598318
C                     0.329225913543    -0.434550085823     0.968702229037
C                    -0.239480363796    -2.073799354947     2.628795497441
C                     1.241298058168     0.094091703345     1.888151749575
C                     3.459562532331    -4.672072477096     4.569397265388
C                     2.136043438052    -4.291585775709     4.612336815679
C                     3.466232826946    -2.551184658482     4.910166015592
C                     0.701314503804    -1.476281976746     3.475278852066
C                     0.994515403413    -2.035640497412     4.854373994421
N                     4.281539012983    -3.578975227620     4.757828332305
N                     1.428363509207    -0.406873673196     3.115402094880
N                     2.149539176750    -2.926938816946     4.845453109128
H                    -1.151524223899    -1.984330432587     0.669799175102
H                     0.220089892602     0.014459111102    -0.014229389983
H                    -0.807282949338    -2.937785626822     2.963726444033
H                     1.847443697247     0.960289819542     1.627472975352
H                     3.863165932699    -5.666130290391     4.424255265019
H                     1.212672650882    -4.845610089548     4.515546006929
H                     3.757223602060    -1.519387344716     5.059882250230
H                     1.205737757077    -1.207795610831     5.534501708530
H                     0.136770025306    -2.590079538015     5.243081199187
