
  -OEChem-12122420533D

 24 25  0     0  0  0  0  0  0999 V2000
    3.9039   -6.6389    0.3014 C   0  0  0  0  0  0  0  0  0  0  0  0
   -0.4048   -1.5744   -1.3615 C   0  0  0  0  0  0  0  0  0  0  0  0
    4.7449   -6.2798   -0.7517 C   0  0  0  0  0  0  0  0  0  0  0  0
    2.5440   -6.3290    0.2071 C   0  0  0  0  0  0  0  0  0  0  0  0
   -0.2495   -2.9510   -1.7077 C   0  0  0  0  0  0  0  0  0  0  0  0
    0.0935   -1.0672   -0.1922 C   0  0  0  0  0  0  0  0  0  0  0  0
    4.1810   -5.6296   -1.8557 C   0  0  0  0  0  0  0  0  0  0  0  0
    2.0756   -5.6670   -0.9353 C   0  0  0  0  0  0  0  0  0  0  0  0
    0.4140   -3.7771   -0.8407 C   0  0  0  0  0  0  0  0  0  0  0  0
    0.8099   -1.9117    0.7462 C   0  0  0  0  0  0  0  0  0  0  0  0
    0.6219   -5.2564   -1.0697 C   0  0  0  0  0  0  0  0  0  0  0  0
    2.8823   -5.3246   -1.9537 N   0  0  0  0  0  0  0  0  0  0  0  0
    0.9068   -3.2543    0.3258 N   0  0  0  0  0  0  0  0  0  0  0  0
    1.3126   -1.5678    1.8200 O   0  0  0  0  0  0  0  0  0  0  0  0
    4.2944   -7.1492    1.1779 H   0  0  0  0  0  0  0  0  0  0  0  0
   -0.9310   -0.9162   -2.0495 H   0  0  0  0  0  0  0  0  0  0  0  0
    5.8088   -6.4964   -0.7272 H   0  0  0  0  0  0  0  0  0  0  0  0
    1.8554   -6.6041    1.0022 H   0  0  0  0  0  0  0  0  0  0  0  0
   -0.6381   -3.3457   -2.6392 H   0  0  0  0  0  0  0  0  0  0  0  0
   -0.0140   -0.0227    0.0798 H   0  0  0  0  0  0  0  0  0  0  0  0
    4.8042   -5.3405   -2.7007 H   0  0  0  0  0  0  0  0  0  0  0  0
    0.2730   -5.5004   -2.0748 H   0  0  0  0  0  0  0  0  0  0  0  0
    0.0100   -5.8195   -0.3548 H   0  0  0  0  0  0  0  0  0  0  0  0
    1.4427   -3.8449    0.9559 H   0  0  0  0  0  0  0  0  0  0  0  0
  1  3  1  0  0  0  0
  1  4  2  0  0  0  0
  1 15  1  0  0  0  0
  2  5  1  0  0  0  0
  2  6  2  0  0  0  0
  2 16  1  0  0  0  0
  3  7  2  0  0  0  0
  3 17  1  0  0  0  0
  4  8  1  0  0  0  0
  4 18  1  0  0  0  0
  5  9  2  0  0  0  0
  5 19  1  0  0  0  0
  6 10  1  0  0  0  0
  6 20  1  0  0  0  0
  7 12  1  0  0  0  0
  7 21  1  0  0  0  0
  8 11  1  0  0  0  0
  8 12  2  0  0  0  0
  9 11  1  0  0  0  0
  9 13  1  0  0  0  0
 10 13  1  0  0  0  0
 10 14  2  0  0  0  0
 11 22  1  0  0  0  0
 11 23  1  0  0  0  0
 13 24  1  0  0  0  0
M  END
$$$$
