
  -OEChem-12102412493D

 22 23  0     1  0  0  0  0  0999 V2000
    4.6290    2.5288   -1.8478 C   0  0  0  0  0  0  0  0  0  0  0  0
    4.1505    2.5653   -3.1597 C   0  0  0  0  0  0  0  0  0  0  0  0
    4.2237    3.5214   -0.9530 C   0  0  0  0  0  0  0  0  0  0  0  0
    3.2784    3.5995   -3.5139 C   0  0  0  0  0  0  0  0  0  0  0  0
    3.3514    4.5168   -1.4082 C   0  0  0  0  0  0  0  0  0  0  0  0
    3.5245    7.7486    0.4346 C   0  0  0  0  0  0  0  0  0  0  0  0
    3.4940    7.0133   -0.9109 C   0  0  0  0  0  0  0  0  0  0  0  0
    3.8793    6.6107    1.3956 C   0  0  0  0  0  0  0  0  0  0  0  0
    2.8913    5.6501   -0.5175 C   0  0  2  0  0  0  0  0  0  0  0  0
    2.8797    4.5559   -2.6660 N   0  0  0  0  0  0  0  0  0  0  0  0
    3.2665    5.4274    0.8523 O   0  0  0  0  0  0  0  0  0  0  0  0
    5.3033    1.7387   -1.5259 H   0  0  0  0  0  0  0  0  0  0  0  0
    4.4366    1.8141   -3.8904 H   0  0  0  0  0  0  0  0  0  0  0  0
    4.5543    3.5356    0.0796 H   0  0  0  0  0  0  0  0  0  0  0  0
    2.8785    3.6603   -4.5255 H   0  0  0  0  0  0  0  0  0  0  0  0
    4.2495    8.5669    0.4644 H   0  0  0  0  0  0  0  0  0  0  0  0
    2.5359    8.1555    0.6728 H   0  0  0  0  0  0  0  0  0  0  0  0
    2.9032    7.5104   -1.6821 H   0  0  0  0  0  0  0  0  0  0  0  0
    4.5099    6.8745   -1.2966 H   0  0  0  0  0  0  0  0  0  0  0  0
    4.9677    6.4643    1.4497 H   0  0  0  0  0  0  0  0  0  0  0  0
    3.4970    6.7564    2.4103 H   0  0  0  0  0  0  0  0  0  0  0  0
    1.7957    5.6998   -0.5751 H   0  0  0  0  0  0  0  0  0  0  0  0
  1  2  1  0  0  0  0
  1  3  2  0  0  0  0
  1 12  1  0  0  0  0
  2  4  2  0  0  0  0
  2 13  1  0  0  0  0
  3  5  1  0  0  0  0
  3 14  1  0  0  0  0
  4 10  1  0  0  0  0
  4 15  1  0  0  0  0
  5  9  1  0  0  0  0
  5 10  2  0  0  0  0
  6  7  1  0  0  0  0
  6  8  1  0  0  0  0
  6 16  1  0  0  0  0
  6 17  1  0  0  0  0
  7  9  1  0  0  0  0
  7 18  1  0  0  0  0
  7 19  1  0  0  0  0
  8 11  1  0  0  0  0
  8 20  1  0  0  0  0
  8 21  1  0  0  0  0
  9 11  1  0  0  0  0
  9 22  1  0  0  0  0
M  END
$$$$
