
  -OEChem-12102412493D

 18 19  0     0  0  0  0  0  0999 V2000
    1.3871   -0.0490    1.6169 C   0  0  0  0  0  0  0  0  0  0  0  0
    0.2138   -0.4162    0.9518 C   0  0  0  0  0  0  0  0  0  0  0  0
    0.9487   -3.2550    6.6636 C   0  0  0  0  0  0  0  0  0  0  0  0
    1.6557   -0.6015    2.8675 C   0  0  0  0  0  0  0  0  0  0  0  0
    0.2182   -3.0221    5.4532 C   0  0  0  0  0  0  0  0  0  0  0  0
   -0.6406   -1.3290    1.5811 C   0  0  0  0  0  0  0  0  0  0  0  0
    2.0762   -2.4854    6.5837 C   0  0  0  0  0  0  0  0  0  0  0  0
    0.7328   -1.5110    3.4155 C   0  0  0  0  0  0  0  0  0  0  0  0
    0.9528   -2.1255    4.7191 C   0  0  0  0  0  0  0  0  0  0  0  0
   -0.4017   -1.8699    2.7788 N   0  0  0  0  0  0  0  0  0  0  0  0
    2.0970   -1.7902    5.4073 O   0  0  0  0  0  0  0  0  0  0  0  0
    2.0817    0.6566    1.1683 H   0  0  0  0  0  0  0  0  0  0  0  0
   -0.0373   -0.0117   -0.0242 H   0  0  0  0  0  0  0  0  0  0  0  0
    0.6754   -3.9057    7.4838 H   0  0  0  0  0  0  0  0  0  0  0  0
    2.5543   -0.3440    3.4180 H   0  0  0  0  0  0  0  0  0  0  0  0
   -0.7257   -3.4506    5.1476 H   0  0  0  0  0  0  0  0  0  0  0  0
   -1.5646   -1.6402    1.0952 H   0  0  0  0  0  0  0  0  0  0  0  0
    2.9196   -2.3247    7.2400 H   0  0  0  0  0  0  0  0  0  0  0  0
  1  2  1  0  0  0  0
  1  4  2  0  0  0  0
  1 12  1  0  0  0  0
  2  6  2  0  0  0  0
  2 13  1  0  0  0  0
  3  5  1  0  0  0  0
  3  7  2  0  0  0  0
  3 14  1  0  0  0  0
  4  8  1  0  0  0  0
  4 15  1  0  0  0  0
  5  9  2  0  0  0  0
  5 16  1  0  0  0  0
  6 10  1  0  0  0  0
  6 17  1  0  0  0  0
  7 11  1  0  0  0  0
  7 18  1  0  0  0  0
  8  9  1  0  0  0  0
  8 10  2  0  0  0  0
  9 11  1  0  0  0  0
M  END
$$$$
