24
0 1 C10H13N
C                     2.832938015662    -0.939490969661    -0.916090547026
C                     3.135081121115    -2.046148692083    -1.711057743469
C                     3.685469611800     0.165702768132    -0.946390355675
C                     4.285709442704    -1.984856270689    -2.503169351513
C                     4.819464724177     0.139373063880    -1.773272478406
C                     4.301248906124     3.083247260811    -2.668576526547
C                     4.676099007659     3.418333759044    -1.200580676446
C                     5.423879673313     2.153748040613    -3.160089528081
C                     5.727287311212     2.350724874973    -0.774705895356
C                     5.779002731073     1.306529701177    -1.911774834104
N                     5.107157730415    -0.929586952487    -2.541509658621
H                     1.949369080722    -0.935294409168    -0.282252694089
H                     2.505150522197    -2.931104981500    -1.720156374095
H                     3.469765063660     1.035426019485    -0.334989505343
H                     4.561734377203    -2.827163348184    -3.137037695642
H                     3.343825300859     2.552465494878    -2.702593122462
H                     4.194870533464     3.976841267503    -3.290979500267
H                     5.101337357901     4.423711985235    -1.123448409481
H                     3.793121645214     3.405625594789    -0.553655080440
H                     5.140789730917     1.536014611269    -4.016497844713
H                     6.303430449274     2.742426915829    -3.448374688910
H                     6.713981893501     2.816859193662    -0.690893522829
H                     5.512382238710     1.903245259484     0.200010871897
H                     6.777225195475     0.873377061240    -2.017778263544
