
  -OEChem-12122420533D

 18 19  0     0  0  0  0  0  0999 V2000
    1.4050   -0.0559    1.6486 C   0  0  0  0  0  0  0  0  0  0  0  0
    0.2436   -0.3933    0.9451 C   0  0  0  0  0  0  0  0  0  0  0  0
    1.5390   -2.9165    6.7337 C   0  0  0  0  0  0  0  0  0  0  0  0
    1.6286   -0.6341    2.8938 C   0  0  0  0  0  0  0  0  0  0  0  0
    1.8944   -2.0578    5.6451 C   0  0  0  0  0  0  0  0  0  0  0  0
   -0.6386   -1.3019    1.5366 C   0  0  0  0  0  0  0  0  0  0  0  0
    0.3430   -3.4837    6.3882 C   0  0  0  0  0  0  0  0  0  0  0  0
    0.6784   -1.5403    3.4059 C   0  0  0  0  0  0  0  0  0  0  0  0
    0.8877   -2.1630    4.7121 C   0  0  0  0  0  0  0  0  0  0  0  0
   -0.4404   -1.8675    2.7320 N   0  0  0  0  0  0  0  0  0  0  0  0
   -0.0640   -3.0377    5.1679 O   0  0  0  0  0  0  0  0  0  0  0  0
    2.1233    0.6459    1.2326 H   0  0  0  0  0  0  0  0  0  0  0  0
    0.0257    0.0320   -0.0301 H   0  0  0  0  0  0  0  0  0  0  0  0
    2.0944   -3.0889    7.6461 H   0  0  0  0  0  0  0  0  0  0  0  0
    2.5207   -0.3915    3.4628 H   0  0  0  0  0  0  0  0  0  0  0  0
    2.7820   -1.4444    5.5695 H   0  0  0  0  0  0  0  0  0  0  0  0
   -1.5543   -1.5912    1.0221 H   0  0  0  0  0  0  0  0  0  0  0  0
   -0.3159   -4.1886    6.8752 H   0  0  0  0  0  0  0  0  0  0  0  0
  1  2  1  0  0  0  0
  1  4  2  0  0  0  0
  1 12  1  0  0  0  0
  2  6  2  0  0  0  0
  2 13  1  0  0  0  0
  3  5  1  0  0  0  0
  3  7  2  0  0  0  0
  3 14  1  0  0  0  0
  4  8  1  0  0  0  0
  4 15  1  0  0  0  0
  5  9  2  0  0  0  0
  5 16  1  0  0  0  0
  6 10  1  0  0  0  0
  6 17  1  0  0  0  0
  7 11  1  0  0  0  0
  7 18  1  0  0  0  0
  8  9  1  0  0  0  0
  8 10  2  0  0  0  0
  9 11  1  0  0  0  0
M  END
$$$$
