24
0 1 C11H10N2O
C                     4.035108197572    -6.675920864958     0.183289401217
C                    -0.568953567142    -1.800900778241     0.322115359363
C                     4.747071789478    -6.282160393546    -0.951304898515
C                     2.677328757771    -6.360245147740     0.269552276988
C                    -0.412183416161    -3.220361436515     0.325274383266
C                     0.060982117169    -1.014341731417    -0.603435579705
C                     4.063142831419    -5.585627873691    -1.951336408130
C                     2.074533418990    -5.667377947376    -0.786425773544
C                     0.383751354353    -3.793000934600    -0.633042997016
C                     0.923844839991    -1.592032225977    -1.620192899253
C                     0.607830364689    -5.284158008654    -0.755940355989
N                     2.759567500151    -5.286812890720    -1.880097889391
N                     1.001543633494    -2.997062279926    -1.556451630941
O                     1.555471240198    -0.975942849683    -2.483572538250
H                     4.527415388263    -7.215944652666     0.987902519233
H                    -1.203058188895    -1.339731983325     1.076415398293
H                     5.804392870603    -6.503007088936    -1.062925792759
H                     2.092917029997    -6.643849482135     1.140259967289
H                    -0.911692449393    -3.841093035765     1.060420165126
H                    -0.045299966406     0.065165188935    -0.614724146717
H                     4.581202462819    -5.252602764115    -2.848787407591
H                     0.145296996375    -5.633562422926    -1.687035378858
H                     0.100926259859    -5.781963466983     0.072534669523
H                     1.643756186758    -3.439042923972    -2.216492069180
