
  -OEChem-12102412493D

 24 25  0     0  0  0  0  0  0999 V2000
   -2.3135   -4.0451    0.9125 C   0  0  0  0  0  0  0  0  0  0  0  0
   -1.1498   -3.3110    0.5321 C   0  0  0  0  0  0  0  0  0  0  0  0
   -3.4492   -3.3433    1.1975 C   0  0  0  0  0  0  0  0  0  0  0  0
   -1.1281   -1.9415    0.4427 C   0  0  0  0  0  0  0  0  0  0  0  0
   -2.3419   -1.1784    0.7464 C   0  0  0  0  0  0  0  0  0  0  0  0
   -0.0883    0.9007   -1.3357 C   0  0  0  0  0  0  0  0  0  0  0  0
    0.6046    1.0468    1.0666 C   0  0  0  0  0  0  0  0  0  0  0  0
   -0.0741   -0.4331   -1.2615 C   0  0  0  0  0  0  0  0  0  0  0  0
    0.6204   -0.2867    1.1461 C   0  0  0  0  0  0  0  0  0  0  0  0
    0.0956    1.7914   -0.1374 C   0  0  0  0  0  0  0  0  0  0  0  0
    0.1309   -1.1893    0.0338 C   0  0  0  0  0  0  0  0  0  0  0  0
   -3.4421   -1.9799    1.1126 N   0  0  0  0  0  0  0  0  0  0  0  0
   -2.4807    0.0466    0.7120 O   0  0  0  0  0  0  0  0  0  0  0  0
   -2.3067   -5.1269    0.9762 H   0  0  0  0  0  0  0  0  0  0  0  0
   -0.2392   -3.8623    0.3030 H   0  0  0  0  0  0  0  0  0  0  0  0
   -4.3845   -3.8062    1.4954 H   0  0  0  0  0  0  0  0  0  0  0  0
   -0.2587    1.3843   -2.2965 H   0  0  0  0  0  0  0  0  0  0  0  0
    0.9546    1.6402    1.9100 H   0  0  0  0  0  0  0  0  0  0  0  0
   -0.2371   -1.0363   -2.1533 H   0  0  0  0  0  0  0  0  0  0  0  0
    0.9752   -0.7806    2.0493 H   0  0  0  0  0  0  0  0  0  0  0  0
   -0.8720    2.2517    0.1137 H   0  0  0  0  0  0  0  0  0  0  0  0
    0.7711    2.6227   -0.3828 H   0  0  0  0  0  0  0  0  0  0  0  0
    0.8941   -1.9617   -0.1394 H   0  0  0  0  0  0  0  0  0  0  0  0
   -4.2816   -1.4490    1.3224 H   0  0  0  0  0  0  0  0  0  0  0  0
  1  2  1  0  0  0  0
  1  3  2  0  0  0  0
  1 14  1  0  0  0  0
  2  4  2  0  0  0  0
  2 15  1  0  0  0  0
  3 12  1  0  0  0  0
  3 16  1  0  0  0  0
  4  5  1  0  0  0  0
  4 11  1  0  0  0  0
  5 12  1  0  0  0  0
  5 13  2  0  0  0  0
  6  8  2  0  0  0  0
  6 10  1  0  0  0  0
  6 17  1  0  0  0  0
  7  9  2  0  0  0  0
  7 10  1  0  0  0  0
  7 18  1  0  0  0  0
  8 11  1  0  0  0  0
  8 19  1  0  0  0  0
  9 11  1  0  0  0  0
  9 20  1  0  0  0  0
 10 21  1  0  0  0  0
 10 22  1  0  0  0  0
 11 23  1  0  0  0  0
 12 24  1  0  0  0  0
M  END
$$$$
