21
0 1 C9H9N3
C                    -0.040403860100     0.238851357305     1.882980105986
C                     0.317178882128    -0.719036907886     0.932118483345
C                     0.194925177272    -0.032103577964     3.232085468745
C                     0.901135782090    -1.905420532368     1.382606778200
C                     4.386813770695    -2.156317815108     6.288011214917
C                     4.433869451834    -2.957122000230     5.167588635435
C                     0.779433792102    -1.252834004942     3.593019156866
C                     2.454284680473    -1.969925763236     5.351922944681
C                     1.029908648550    -1.607789853286     5.045518179355
N                     1.129114325751    -2.174929432700     2.675033620957
N                     3.151145316657    -1.544465243234     6.393873703298
N                     3.185810001193    -2.834811228903     4.584974284515
H                    -0.491718989054     1.180354687354     1.580467719510
H                     0.154319372565    -0.556004659006    -0.129127843825
H                    -0.065443059888     0.691370845965     3.999186214441
H                     1.199366278249    -2.676241409731     0.673493281833
H                     5.166169048774    -1.984539960303     7.019255050404
H                     5.210774120834    -3.579318420208     4.746675594500
H                     0.759584661853    -0.776708423632     5.698627375113
H                     0.374452080895    -2.450409891475     5.304498051310
H                     2.850917980877    -3.208693211314     3.702319079864
