
  -OEChem-12102412493D

 24 25  0     0  0  0  0  0  0999 V2000
    4.0483   -6.3729   -1.9538 C   0  0  0  0  0  0  0  0  0  0  0  0
   -0.5152   -1.7940    0.3258 C   0  0  0  0  0  0  0  0  0  0  0  0
    4.7661   -6.2582   -0.7636 C   0  0  0  0  0  0  0  0  0  0  0  0
    2.6798   -6.0879   -1.9399 C   0  0  0  0  0  0  0  0  0  0  0  0
   -0.3690   -3.2137    0.3698 C   0  0  0  0  0  0  0  0  0  0  0  0
    0.0921   -1.0389   -0.6406 C   0  0  0  0  0  0  0  0  0  0  0  0
    4.0757   -5.8671    0.3897 C   0  0  0  0  0  0  0  0  0  0  0  0
    2.0800   -5.6942   -0.7366 C   0  0  0  0  0  0  0  0  0  0  0  0
    0.3983   -3.8263   -0.5844 C   0  0  0  0  0  0  0  0  0  0  0  0
    0.9196   -1.6534   -1.6625 C   0  0  0  0  0  0  0  0  0  0  0  0
    0.6118   -5.3198   -0.6715 C   0  0  0  0  0  0  0  0  0  0  0  0
    2.7677   -5.5879    0.4127 N   0  0  0  0  0  0  0  0  0  0  0  0
    0.9994   -3.0567   -1.5452 N   0  0  0  0  0  0  0  0  0  0  0  0
    1.5245   -1.0791   -2.5725 O   0  0  0  0  0  0  0  0  0  0  0  0
    4.5394   -6.6774   -2.8743 H   0  0  0  0  0  0  0  0  0  0  0  0
   -1.1237   -1.3052    1.0836 H   0  0  0  0  0  0  0  0  0  0  0  0
    5.8311   -6.4668   -0.7210 H   0  0  0  0  0  0  0  0  0  0  0  0
    2.0846   -6.1781   -2.8452 H   0  0  0  0  0  0  0  0  0  0  0  0
   -0.8444   -3.8060    1.1427 H   0  0  0  0  0  0  0  0  0  0  0  0
   -0.0078    0.0404   -0.6817 H   0  0  0  0  0  0  0  0  0  0  0  0
    4.6003   -5.7739    1.3394 H   0  0  0  0  0  0  0  0  0  0  0  0
    0.0911   -5.7057   -1.5561 H   0  0  0  0  0  0  0  0  0  0  0  0
    0.1635   -5.7825    0.2097 H   0  0  0  0  0  0  0  0  0  0  0  0
    1.6099   -3.4926   -2.2311 H   0  0  0  0  0  0  0  0  0  0  0  0
  1  3  1  0  0  0  0
  1  4  2  0  0  0  0
  1 15  1  0  0  0  0
  2  5  1  0  0  0  0
  2  6  2  0  0  0  0
  2 16  1  0  0  0  0
  3  7  2  0  0  0  0
  3 17  1  0  0  0  0
  4  8  1  0  0  0  0
  4 18  1  0  0  0  0
  5  9  2  0  0  0  0
  5 19  1  0  0  0  0
  6 10  1  0  0  0  0
  6 20  1  0  0  0  0
  7 12  1  0  0  0  0
  7 21  1  0  0  0  0
  8 11  1  0  0  0  0
  8 12  2  0  0  0  0
  9 11  1  0  0  0  0
  9 13  1  0  0  0  0
 10 13  1  0  0  0  0
 10 14  2  0  0  0  0
 11 22  1  0  0  0  0
 11 23  1  0  0  0  0
 13 24  1  0  0  0  0
M  END
$$$$
