18
0 1 C8ClH6N3
C                     0.175956026390    -0.442372415102     0.994753416739
C                     1.307259812266     0.017265909361     1.667345287528
C                     1.277539674917    -2.372146788686     6.908370294578
C                    -0.604407662366    -1.423947938143     1.611054802591
C                     1.118454050842    -3.597908442078     6.205579963159
C                     1.184535245528    -1.399929431234     5.935105600174
C                     1.609053692510    -0.518366173174     2.919890012455
C                     0.745061848398    -1.483842786648     3.470693266947
N                    -0.333351823586    -1.919904789971     2.820955078191
N                     0.930768060146    -3.407226509312     4.903847904286
N                     0.982312587519    -2.052821505582     4.746456393424
Cl                    3.076730078329    -0.004169874086     3.723895640325
H                    -0.088216777952    -0.054366105551     0.015678531191
H                     1.963151337129     0.762428386098     1.228066019058
H                     1.432676562771    -2.221391350550     7.967923207048
H                    -1.489412334456    -1.822910930633     1.119209488352
H                     1.139915811598    -4.608130216695     6.596041670843
H                     1.230212721665    -0.322052863535     5.990109448933
