
  -OEChem-12122420533D

 18 19  0     0  0  0  0  0  0999 V2000
   -2.3088   -2.5966    2.8033 C   0  0  0  0  0  0  0  0  0  0  0  0
   -1.7500   -1.5629    3.5539 C   0  0  0  0  0  0  0  0  0  0  0  0
   -1.5292   -4.3906    8.7578 C   0  0  0  0  0  0  0  0  0  0  0  0
   -2.5869   -3.7991    3.4539 C   0  0  0  0  0  0  0  0  0  0  0  0
   -1.7393   -3.0001    8.9752 C   0  0  0  0  0  0  0  0  0  0  0  0
   -1.5389   -4.5358    7.3880 C   0  0  0  0  0  0  0  0  0  0  0  0
   -1.5044   -1.7504    4.9156 C   0  0  0  0  0  0  0  0  0  0  0  0
   -1.8812   -2.9813    5.4931 C   0  0  0  0  0  0  0  0  0  0  0  0
   -2.3895   -3.9779    4.7626 N   0  0  0  0  0  0  0  0  0  0  0  0
   -1.8623   -2.3307    7.8347 N   0  0  0  0  0  0  0  0  0  0  0  0
   -1.7266   -3.2804    6.8638 N   0  0  0  0  0  0  0  0  0  0  0  0
   -0.6781   -0.4808    5.7787 Cl  0  0  0  0  0  0  0  0  0  0  0  0
   -2.5064   -2.4763    1.7427 H   0  0  0  0  0  0  0  0  0  0  0  0
   -1.4781   -0.6184    3.0927 H   0  0  0  0  0  0  0  0  0  0  0  0
   -1.3881   -5.1688    9.4954 H   0  0  0  0  0  0  0  0  0  0  0  0
   -2.9933   -4.6503    2.9115 H   0  0  0  0  0  0  0  0  0  0  0  0
   -1.8117   -2.4648    9.9141 H   0  0  0  0  0  0  0  0  0  0  0  0
   -1.4392   -5.3967    6.7444 H   0  0  0  0  0  0  0  0  0  0  0  0
  1  2  1  0  0  0  0
  1  4  2  0  0  0  0
  1 13  1  0  0  0  0
  2  7  2  0  0  0  0
  2 14  1  0  0  0  0
  3  5  1  0  0  0  0
  3  6  2  0  0  0  0
  3 15  1  0  0  0  0
  4  9  1  0  0  0  0
  4 16  1  0  0  0  0
  5 10  2  0  0  0  0
  5 17  1  0  0  0  0
  6 11  1  0  0  0  0
  6 18  1  0  0  0  0
  7  8  1  0  0  0  0
  7 12  1  0  0  0  0
  8  9  2  0  0  0  0
  8 11  1  0  0  0  0
 10 11  1  0  0  0  0
M  END
$$$$
