
  -OEChem-12102412493D

 29 30  0     0  0  0  0  0  0999 V2000
   -3.4276   -1.6131    2.7305 C   0  0  0  0  0  0  0  0  0  0  0  0
   -2.2046   -2.0217    3.2647 C   0  0  0  0  0  0  0  0  0  0  0  0
   -3.4585   -0.4767    1.9185 C   0  0  0  0  0  0  0  0  0  0  0  0
   -1.0640   -1.2734    2.9593 C   0  0  0  0  0  0  0  0  0  0  0  0
   -2.2663    0.2145    1.6766 C   0  0  0  0  0  0  0  0  0  0  0  0
   -2.0815    2.2623   -1.4799 C   0  0  0  0  0  0  0  0  0  0  0  0
   -0.3059    0.9352   -0.5759 C   0  0  0  0  0  0  0  0  0  0  0  0
   -1.7557    1.8325   -2.9053 C   0  0  0  0  0  0  0  0  0  0  0  0
    0.1041    0.4279   -1.9475 C   0  0  0  0  0  0  0  0  0  0  0  0
   -2.2473    1.4610    0.8182 C   0  0  0  0  0  0  0  0  0  0  0  0
   -1.0852   -0.1775    2.1874 N   0  0  0  0  0  0  0  0  0  0  0  0
   -1.7432    1.1949   -0.5485 N   0  0  0  0  0  0  0  0  0  0  0  0
   -0.2853    1.4636   -2.9927 N   0  3  0  0  0  0  0  0  0  0  0  0
   -4.3394   -2.1639    2.9447 H   0  0  0  0  0  0  0  0  0  0  0  0
   -2.1305   -2.8939    3.9070 H   0  0  0  0  0  0  0  0  0  0  0  0
   -4.3931   -0.1267    1.4891 H   0  0  0  0  0  0  0  0  0  0  0  0
   -0.0927   -1.5594    3.3583 H   0  0  0  0  0  0  0  0  0  0  0  0
   -1.5649    3.2156   -1.2496 H   0  0  0  0  0  0  0  0  0  0  0  0
   -3.1556    2.4627   -1.4395 H   0  0  0  0  0  0  0  0  0  0  0  0
   -0.0569    0.1773    0.1688 H   0  0  0  0  0  0  0  0  0  0  0  0
    0.2842    1.8363   -0.3144 H   0  0  0  0  0  0  0  0  0  0  0  0
   -2.3148    0.9367   -3.1801 H   0  0  0  0  0  0  0  0  0  0  0  0
   -1.9399    2.6260   -3.6325 H   0  0  0  0  0  0  0  0  0  0  0  0
    1.1815    0.2714   -2.0300 H   0  0  0  0  0  0  0  0  0  0  0  0
   -0.4286   -0.4884   -2.2068 H   0  0  0  0  0  0  0  0  0  0  0  0
   -3.2650    1.8454    0.7173 H   0  0  0  0  0  0  0  0  0  0  0  0
   -1.6431    2.2351    1.3170 H   0  0  0  0  0  0  0  0  0  0  0  0
    0.2786    2.3091   -2.8423 H   0  0  0  0  0  0  0  0  0  0  0  0
   -0.0601    1.1248   -3.9345 H   0  0  0  0  0  0  0  0  0  0  0  0
  1  2  1  0  0  0  0
  1  3  2  0  0  0  0
  1 14  1  0  0  0  0
  2  4  2  0  0  0  0
  2 15  1  0  0  0  0
  3  5  1  0  0  0  0
  3 16  1  0  0  0  0
  4 11  1  0  0  0  0
  4 17  1  0  0  0  0
  5 10  1  0  0  0  0
  5 11  2  0  0  0  0
  6  8  1  0  0  0  0
  6 12  1  0  0  0  0
  6 18  1  0  0  0  0
  6 19  1  0  0  0  0
  7  9  1  0  0  0  0
  7 12  1  0  0  0  0
  7 20  1  0  0  0  0
  7 21  1  0  0  0  0
  8 13  1  0  0  0  0
  8 22  1  0  0  0  0
  8 23  1  0  0  0  0
  9 13  1  0  0  0  0
  9 24  1  0  0  0  0
  9 25  1  0  0  0  0
 10 12  1  0  0  0  0
 10 26  1  0  0  0  0
 10 27  1  0  0  0  0
 13 28  1  0  0  0  0
 13 29  1  0  0  0  0
M  CHG  1  13   1
M  END
$$$$
