18
0 1 C9H7NO
C                     1.387061116787    -0.049032475527     1.616941343423
C                     0.213840479081    -0.416204273944     0.951820015487
C                     0.948695986073    -3.254971255959     6.663554438053
C                     1.655674617528    -0.601451932472     2.867482502888
C                     0.218235925537    -3.022126022953     5.453203742687
C                    -0.640553566833    -1.329019769672     1.581131471777
C                     2.076198565043    -2.485365565268     6.583686409577
C                     0.732848819384    -1.511032959503     3.415463295474
C                     0.952793061250    -2.125473282022     4.719147716625
N                    -0.401674623520    -1.869852579375     2.778765959394
O                     2.097024344753    -1.790237767486     5.407300292006
H                     2.081720010643     0.656606834866     1.168297411068
H                    -0.037340638439    -0.011685338792    -0.024222081382
H                     0.675443733780    -3.905656645463     7.483832497989
H                     2.554295945308    -0.344019316472     3.417995498387
H                    -0.725678282967    -3.450552025585     5.147590838140
H                    -1.564562922727    -1.640161417173     1.095189155782
H                     2.919599991593    -2.324677846604     7.240020612344
