
  -OEChem-12102412493D

 21 22  0     0  0  0  0  0  0999 V2000
   -8.1449    3.1596    6.1263 C   0  0  0  0  0  0  0  0  0  0  0  0
   -7.8741    4.4572    5.6882 C   0  0  0  0  0  0  0  0  0  0  0  0
   -9.4467    2.6651    6.0127 C   0  0  0  0  0  0  0  0  0  0  0  0
   -8.9266    5.2057    5.1520 C   0  0  0  0  0  0  0  0  0  0  0  0
  -12.1196   -0.5307    5.6059 C   0  0  0  0  0  0  0  0  0  0  0  0
  -11.8643    0.5771    4.8267 C   0  0  0  0  0  0  0  0  0  0  0  0
  -12.4991    1.1714    6.8574 C   0  0  0  0  0  0  0  0  0  0  0  0
  -10.4283    3.4955    5.4610 C   0  0  0  0  0  0  0  0  0  0  0  0
  -11.8782    3.0623    5.3085 C   0  0  0  0  0  0  0  0  0  0  0  0
  -12.5157   -0.1486    6.8720 N   0  0  0  0  0  0  0  0  0  0  0  0
  -10.1777    4.7435    5.0360 N   0  0  0  0  0  0  0  0  0  0  0  0
  -12.1205    1.6695    5.6371 N   0  0  0  0  0  0  0  0  0  0  0  0
   -7.3581    2.5404    6.5494 H   0  0  0  0  0  0  0  0  0  0  0  0
   -6.8771    4.8826    5.7563 H   0  0  0  0  0  0  0  0  0  0  0  0
   -9.6939    1.6606    6.3402 H   0  0  0  0  0  0  0  0  0  0  0  0
   -8.7576    6.2218    4.7981 H   0  0  0  0  0  0  0  0  0  0  0  0
  -12.0489   -1.5739    5.3254 H   0  0  0  0  0  0  0  0  0  0  0  0
  -11.5365    0.6924    3.8030 H   0  0  0  0  0  0  0  0  0  0  0  0
  -12.7538    1.8206    7.6865 H   0  0  0  0  0  0  0  0  0  0  0  0
  -12.5040    3.6851    5.9545 H   0  0  0  0  0  0  0  0  0  0  0  0
  -12.2000    3.2562    4.2818 H   0  0  0  0  0  0  0  0  0  0  0  0
  1  2  1  0  0  0  0
  1  3  2  0  0  0  0
  1 13  1  0  0  0  0
  2  4  2  0  0  0  0
  2 14  1  0  0  0  0
  3  8  1  0  0  0  0
  3 15  1  0  0  0  0
  4 11  1  0  0  0  0
  4 16  1  0  0  0  0
  5  6  2  0  0  0  0
  5 10  1  0  0  0  0
  5 17  1  0  0  0  0
  6 12  1  0  0  0  0
  6 18  1  0  0  0  0
  7 10  2  0  0  0  0
  7 12  1  0  0  0  0
  7 19  1  0  0  0  0
  8  9  1  0  0  0  0
  8 11  2  0  0  0  0
  9 12  1  0  0  0  0
  9 20  1  0  0  0  0
  9 21  1  0  0  0  0
M  END
$$$$
