22
0 1 C9H11NO
C                    -0.731378119496    -4.319084654673     0.986910232586
C                     0.649759731560    -4.518613763638     0.998556941442
C                    -1.221872941742    -3.057304946028     0.642032728264
C                     1.474739880270    -3.440510517589     0.657462313328
C                    -0.317818403370    -2.040920437117     0.311755704736
C                     0.268443444352     1.338848458470    -0.934711472845
C                    -0.175389880859    -0.078843292683    -1.336853851977
C                     0.569044278699     1.153898922507     0.552741424235
C                    -0.801932406810    -0.645735333581    -0.038779116726
N                     1.012989191508    -2.233633611314     0.315095109274
O                    -0.458560131188     0.270012020856     1.022235600162
H                    -1.412180740928    -5.126543105633     1.244769624715
H                     1.082933993678    -5.479326692111     1.262060791705
H                    -2.289913454497    -2.856622426539     0.634266094887
H                     2.557975293287    -3.557580270195     0.655613802079
H                     1.134047310417     1.688843958395    -1.504776730179
H                    -0.547740223335     2.057040556106    -1.065982865381
H                    -0.887923333120    -0.086587123814    -2.165631302265
H                     0.691530271183    -0.679788707313    -1.619399006435
H                     1.556851921750     0.698234226761     0.703037330173
H                     0.502134059119     2.073328672985     1.140840289477
H                    -1.896133165398    -0.655670577502    -0.095628687970
