
  -OEChem-12122420533D

 22 23  0     1  0  0  0  0  0999 V2000
   -0.7314   -4.3191    0.9869 C   0  0  0  0  0  0  0  0  0  0  0  0
    0.6498   -4.5186    0.9986 C   0  0  0  0  0  0  0  0  0  0  0  0
   -1.2219   -3.0573    0.6420 C   0  0  0  0  0  0  0  0  0  0  0  0
    1.4747   -3.4405    0.6575 C   0  0  0  0  0  0  0  0  0  0  0  0
   -0.3178   -2.0409    0.3118 C   0  0  0  0  0  0  0  0  0  0  0  0
    0.2684    1.3388   -0.9347 C   0  0  0  0  0  0  0  0  0  0  0  0
   -0.1754   -0.0788   -1.3369 C   0  0  0  0  0  0  0  0  0  0  0  0
    0.5690    1.1539    0.5527 C   0  0  0  0  0  0  0  0  0  0  0  0
   -0.8019   -0.6457   -0.0388 C   0  0  2  0  0  0  0  0  0  0  0  0
    1.0130   -2.2336    0.3151 N   0  0  0  0  0  0  0  0  0  0  0  0
   -0.4586    0.2700    1.0222 O   0  0  0  0  0  0  0  0  0  0  0  0
   -1.4122   -5.1265    1.2448 H   0  0  0  0  0  0  0  0  0  0  0  0
    1.0829   -5.4793    1.2621 H   0  0  0  0  0  0  0  0  0  0  0  0
   -2.2899   -2.8566    0.6343 H   0  0  0  0  0  0  0  0  0  0  0  0
    2.5580   -3.5576    0.6556 H   0  0  0  0  0  0  0  0  0  0  0  0
    1.1340    1.6888   -1.5048 H   0  0  0  0  0  0  0  0  0  0  0  0
   -0.5477    2.0570   -1.0660 H   0  0  0  0  0  0  0  0  0  0  0  0
   -0.8879   -0.0866   -2.1656 H   0  0  0  0  0  0  0  0  0  0  0  0
    0.6915   -0.6798   -1.6194 H   0  0  0  0  0  0  0  0  0  0  0  0
    1.5569    0.6982    0.7030 H   0  0  0  0  0  0  0  0  0  0  0  0
    0.5021    2.0733    1.1408 H   0  0  0  0  0  0  0  0  0  0  0  0
   -1.8961   -0.6557   -0.0956 H   0  0  0  0  0  0  0  0  0  0  0  0
  1  2  1  0  0  0  0
  1  3  2  0  0  0  0
  1 12  1  0  0  0  0
  2  4  2  0  0  0  0
  2 13  1  0  0  0  0
  3  5  1  0  0  0  0
  3 14  1  0  0  0  0
  4 10  1  0  0  0  0
  4 15  1  0  0  0  0
  5  9  1  0  0  0  0
  5 10  2  0  0  0  0
  6  7  1  0  0  0  0
  6  8  1  0  0  0  0
  6 16  1  0  0  0  0
  6 17  1  0  0  0  0
  7  9  1  0  0  0  0
  7 18  1  0  0  0  0
  7 19  1  0  0  0  0
  8 11  1  0  0  0  0
  8 20  1  0  0  0  0
  8 21  1  0  0  0  0
  9 11  1  0  0  0  0
  9 22  1  0  0  0  0
M  END
$$$$
