24
0 1 C11H10N2O
C                     3.903853029609    -6.638860409976     0.301395277510
C                    -0.404786571819    -1.574431950704    -1.361538026774
C                     4.744900914056    -6.279762056592    -0.751717103798
C                     2.544038564760    -6.328961291733     0.207146355616
C                    -0.249541091509    -2.950988206637    -1.707703924143
C                     0.093513725412    -1.067247731208    -0.192188399741
C                     4.181034306273    -5.629643336503    -1.855723537267
C                     2.075622476273    -5.666962045839    -0.935343575023
C                     0.414031869200    -3.777131359853    -0.840728642419
C                     0.809894232493    -1.911665966477     0.746224964032
C                     0.621904213615    -5.256419587041    -1.069654148699
N                     2.882343090156    -5.324633064255    -1.953711170239
N                     0.906820261896    -3.254286770529     0.325781567872
O                     1.312555939501    -1.567802921327     1.820008356590
H                     4.294369485967    -7.149228477077     1.177902797666
H                    -0.930991859772    -0.916196620598    -2.049492848633
H                     5.808836726190    -6.496416488408    -0.727249711736
H                     1.855365321338    -6.604116317107     1.002186620848
H                    -0.638086918393    -3.345676431535    -2.639152299803
H                    -0.013985968466    -0.022743189831     0.079798965558
H                     4.804235009346    -5.340460246616    -2.700705282763
H                     0.273002898700    -5.500420034401    -2.074751037826
H                     0.010003830579    -5.819536197255    -0.354814044727
H                     1.442656601543    -3.844912557495     0.955922641733
