
  -OEChem-12102412493D

 24 25  0     0  0  0  0  0  0999 V2000
    2.8329   -0.9395   -0.9161 C   0  0  0  0  0  0  0  0  0  0  0  0
    3.1351   -2.0461   -1.7111 C   0  0  0  0  0  0  0  0  0  0  0  0
    3.6855    0.1657   -0.9464 C   0  0  0  0  0  0  0  0  0  0  0  0
    4.2857   -1.9849   -2.5032 C   0  0  0  0  0  0  0  0  0  0  0  0
    4.8195    0.1394   -1.7733 C   0  0  0  0  0  0  0  0  0  0  0  0
    4.3012    3.0832   -2.6686 C   0  0  0  0  0  0  0  0  0  0  0  0
    4.6761    3.4183   -1.2006 C   0  0  0  0  0  0  0  0  0  0  0  0
    5.4239    2.1537   -3.1601 C   0  0  0  0  0  0  0  0  0  0  0  0
    5.7273    2.3507   -0.7747 C   0  0  0  0  0  0  0  0  0  0  0  0
    5.7790    1.3065   -1.9118 C   0  0  0  0  0  0  0  0  0  0  0  0
    5.1072   -0.9296   -2.5415 N   0  0  0  0  0  0  0  0  0  0  0  0
    1.9494   -0.9353   -0.2823 H   0  0  0  0  0  0  0  0  0  0  0  0
    2.5052   -2.9311   -1.7202 H   0  0  0  0  0  0  0  0  0  0  0  0
    3.4698    1.0354   -0.3350 H   0  0  0  0  0  0  0  0  0  0  0  0
    4.5617   -2.8272   -3.1370 H   0  0  0  0  0  0  0  0  0  0  0  0
    3.3438    2.5525   -2.7026 H   0  0  0  0  0  0  0  0  0  0  0  0
    4.1949    3.9768   -3.2910 H   0  0  0  0  0  0  0  0  0  0  0  0
    5.1013    4.4237   -1.1234 H   0  0  0  0  0  0  0  0  0  0  0  0
    3.7931    3.4056   -0.5537 H   0  0  0  0  0  0  0  0  0  0  0  0
    5.1408    1.5360   -4.0165 H   0  0  0  0  0  0  0  0  0  0  0  0
    6.3034    2.7424   -3.4484 H   0  0  0  0  0  0  0  0  0  0  0  0
    6.7140    2.8169   -0.6909 H   0  0  0  0  0  0  0  0  0  0  0  0
    5.5124    1.9032    0.2000 H   0  0  0  0  0  0  0  0  0  0  0  0
    6.7772    0.8734   -2.0178 H   0  0  0  0  0  0  0  0  0  0  0  0
  1  2  1  0  0  0  0
  1  3  2  0  0  0  0
  1 12  1  0  0  0  0
  2  4  2  0  0  0  0
  2 13  1  0  0  0  0
  3  5  1  0  0  0  0
  3 14  1  0  0  0  0
  4 11  1  0  0  0  0
  4 15  1  0  0  0  0
  5 10  1  0  0  0  0
  5 11  2  0  0  0  0
  6  7  1  0  0  0  0
  6  8  1  0  0  0  0
  6 16  1  0  0  0  0
  6 17  1  0  0  0  0
  7  9  1  0  0  0  0
  7 18  1  0  0  0  0
  7 19  1  0  0  0  0
  8 10  1  0  0  0  0
  8 20  1  0  0  0  0
  8 21  1  0  0  0  0
  9 10  1  0  0  0  0
  9 22  1  0  0  0  0
  9 23  1  0  0  0  0
 10 24  1  0  0  0  0
M  END
$$$$
