22
0 1 C9H9N3O
C                     1.219326096495    -2.867949782240    -2.093061897550
C                     0.039395809264    -3.021872065518    -1.306677378661
C                    -1.180974046945    -3.734747128127     3.781537220516
C                     2.009014792596    -1.776960563101    -1.869014055751
C                    -0.563242718435    -2.523096413691     4.007941456683
C                    -0.317721251726    -2.116791701248    -0.338825950160
C                     0.533409464165    -0.964357165543    -0.081681079560
C                    -1.299831032079    -2.655286346737     1.919910446875
C                    -1.570794762273    -2.258858573470     0.496374684862
N                    -1.634076593640    -3.809364861406     2.477524635410
N                     1.659438718529    -0.873356936630    -0.903018589314
N                    -0.653888075819    -1.841214297208     2.809856559883
O                     0.336591875104    -0.090830579991     0.783873535982
H                     1.490218853442    -3.589947367826    -2.854319055727
H                    -0.599209829798    -3.885376886675    -1.479454616379
H                    -1.328402574416    -4.549919257700     4.478334604148
H                     2.921367242389    -1.569052012382    -2.417709809083
H                    -0.092407787376    -2.096299975236     4.882101329771
H                    -2.214518941990    -3.029867848503     0.069470791683
H                    -2.118220696679    -1.308954454657     0.475766820328
H                     2.244391122535    -0.063243026802    -0.722302735625
H                    -0.258860764748    -0.939405941467     2.551301987653
