23   
torsion grid (-165,)
C        1.2426677600    0.6344161324   -0.0025132371
C       -0.7118006768   -0.6796653421   -0.7393609999
C        0.3981307073    1.4535607556    0.6470402333
C       -1.4892317639    0.1588267564   -0.0245170403
C        1.2412665841   -2.0418240112    1.3790956127
C        0.7981948039   -0.6466272525   -0.6581566464
C        1.6855454751   -3.3873096815    1.9484948002
C        1.2027562096   -3.0905826038   -0.8269680909
N       -0.9588934863    1.1875168130    0.7314520432
N        1.3441169364   -1.8902689919    0.0026051821
O        0.8492449417   -1.1570933255    2.1347546008
H        2.2976854302    0.8876211536   -0.0341089329
H       -1.1915181565   -1.4383639942   -1.3501117978
H        0.7353599037    2.3562081762    1.1456993366
H       -2.5730258545    0.0898483895   -0.0314356439
H        1.2343465621   -0.7039587031   -1.6641710174
H        2.6621138424   -3.6988855078    1.5652569828
H        1.7374660601   -3.2815324457    3.0323780306
H        0.9635821692   -4.1758383343    1.7096496079
H        0.1904186255   -3.5154561174   -0.7877099070
H        1.4206751277   -2.8283889440   -1.8660442639
H        1.9139173732   -3.8633174174   -0.5317509143
H       -1.5737669114    1.8480805278    1.1798819899
23   
torsion grid (-150,)
C        1.2347815310    0.6103292981   -0.1173308714
C       -0.8022145701   -0.6848273018   -0.6632541639
C        0.4608214434    1.4538311720    0.5886202706
C       -1.5033489999    0.1857910289    0.0902214333
C        1.1063358561   -2.0547105767    1.3542954839
C        0.7075959990   -0.6789298786   -0.6911338367
C        1.5845312426   -3.3699590951    1.9642203059
C        1.3911722723   -3.0709919288   -0.8728497220
N       -0.8973051355    1.2406008775    0.7462747794
N        1.2828111038   -1.8954357263   -0.0095566847
O        0.6154284415   -1.1876627869    2.0743974287
H        2.2884140852    0.8382817917   -0.2440628612
H       -1.3368496983   -1.4544368560   -1.2120296396
H        0.8530737098    2.3551668202    1.0488768197
H       -2.5844149201    0.1352346946    0.1806446147
H        1.0675940407   -0.7877963972   -1.7216719687
H        2.6148226213   -3.6089359121    1.6823546947
H        1.5225246809   -3.2664820076    3.0477380256
H        0.9485107794   -4.2068885405    1.6556969228
H        0.4150015280   -3.5366819355   -1.0718936658
H        1.8265270248   -2.7732274096   -1.8310068469
H        2.0475132982   -3.8244869667   -0.4380945914
H       -1.4240746714    1.7991836687    1.3990040015
23   
torsion grid (-135,)
C        1.2096539933    0.5683467867   -0.2068364629
C       -0.8950274595   -0.6761312780   -0.5992796808
C        0.5062724083    1.4403768541    0.5391896040
C       -1.5238941055    0.2301081687    0.1749154440
C        1.0160567309   -2.0821757174    1.3440076929
C        0.6084740268   -0.7187866479   -0.7082423925
C        1.5153421025   -3.3837619855    1.9665937650
C        1.5490141176   -3.0373095034   -0.8862356462
N       -0.8463540663    1.2741034015    0.7765956307
N        1.1908930765   -1.9235349722   -0.0142312284
O        0.4987040635   -1.2197471412    2.0537641179
H        2.2590891759    0.7625191213   -0.4049085413
H       -1.4799224580   -1.4419444342   -1.0998589005
H        0.9519077055    2.3347672443    0.9634738441
H       -2.5987968932    0.2172979649    0.3284473548
H        0.9020893061   -0.8748599731   -1.7531449593
H        2.5848035416   -3.5394462638    1.7897564515
H        1.3398761388   -3.3163863843    3.0403706015
H        0.9798786676   -4.2547479188    1.5739103729
H        0.6652619104   -3.5761264373   -1.2585710189
H        2.1031701060   -2.6588475018   -1.7505473016
H        2.1932638249   -3.7516319089   -0.3752017878
H       -1.3105042512    1.8448845585    1.4654929692
23   
torsion grid (-120,)
C        1.1761933237    0.4995343184   -0.2673889556
C       -0.9900191320   -0.6679601409   -0.5560911303
C        0.5379950914    1.4038015839    0.4997987303
C       -1.5532605628    0.2757021365    0.2226468215
C        0.9469649743   -2.1188007675    1.3396664644
C        0.5046105437   -0.7716132334   -0.7188781681
C        1.5161095063   -3.3837509332    1.9793920617
C        1.6583705443   -2.9851543781   -0.8977891737
N       -0.8111743581    1.2980374299    0.7855028880
N        1.0656227225   -1.9826763467   -0.0230372514
O        0.4082819516   -1.2639785284    2.0446814903
H        2.2235037546    0.6511744082   -0.5097729388
H       -1.6203550322   -1.4190043125   -1.0223048413
H        1.0349680419    2.2831330604    0.8981060513
H       -2.6215458221    0.3106973309    0.4136160625
H        0.7481276049   -0.9622506625   -1.7712067708
H        2.5940305811   -3.4799942846    1.8115012637
H        1.3327045844   -3.3100093287    3.0513975638
H        1.0325026910   -4.2899665792    1.5996577116
H        0.9105007040   -3.3991952772   -1.5874918693
H        2.4636740674   -2.5439336572   -1.4984416755
H        2.0827120291   -3.8104139277   -0.3302507443
H       -1.2212661462    1.8835881219    1.4961463384
23   
torsion grid (-105,)
C        1.1405148271    0.4197790369   -0.3174200704
C       -1.0814002734   -0.6584534238   -0.5215494993
C        0.5657312492    1.3560966592    0.4627390149
C       -1.5810287009    0.3208444735    0.2555875434
C        0.8820636496   -2.1536630267    1.3294472657
C        0.4007719416   -0.8268001922   -0.7308936658
C        1.5363469502   -3.3734338440    1.9742522698
C        1.7508712564   -2.9352820870   -0.8710212335
N       -0.7771477130    1.3122826655    0.7889094785
N        0.9330098184   -2.0570476690   -0.0430451842
O        0.3245166319   -1.3109982285    2.0333082494
H        2.1845364389    0.5275978122   -0.5954676742
H       -1.7551041547   -1.3885632424   -0.9589296924
H        1.1120810717    2.2165263662    0.8372370348
H       -2.6410377360    0.4071719689    0.4737622472
H        0.5968994463   -1.0380948716   -1.7890249391
H        2.6126944648   -3.4131579136    1.7760410770
H        1.3781616012   -3.2927843203    3.0497899713
H        1.0942766466   -4.3108695847    1.6204036221
H        1.2354807288   -3.1354542424   -1.8161307482
H        2.7282577135   -2.4888335839   -1.1053869861
H        1.9233886559   -3.8940692492   -0.3849290219
H       -1.1446328512    1.9341725293    1.4917808692
23   
torsion grid (-90,)
C        1.1090550533    0.3492686708   -0.3912729925
C       -1.1539363680   -0.6643987949   -0.4488678377
C        0.6021395891    1.3254772210    0.3882512431
C       -1.5866087352    0.3603184105    0.3082343237
C        0.8149054075   -2.2068896053    1.3212936124
C        0.3086541128   -0.8829347515   -0.7309787240
C        1.5033754378   -3.4115313672    1.9576741816
C        1.8599365722   -2.8444509415   -0.8255521737
N       -0.7240035771    1.3349235032    0.7789715159
N        0.8519592368   -2.1173414456   -0.0574824308
O        0.2397771523   -1.3818616703    2.0293124785
H        2.1398560687    0.4188566490   -0.7251903696
H       -1.8691300188   -1.3853734131   -0.8315047584
H        1.1921315133    2.1787712706    0.7094533635
H       -2.6327652914    0.4938050329    0.5652722505
H        0.4312208222   -1.1218160427   -1.7949645227
H        2.5895605615   -3.3724552944    1.8215340732
H        1.2826644209   -3.3854054285    3.0249342554
H        1.1467942635   -4.3585999346    1.5398192727
H        1.5255223339   -2.9345703440   -1.8629639433
H        2.8355046350   -2.3364368064   -0.8251273051
H        2.0001510663   -3.8544419731   -0.4408428432
H       -1.0475125940    2.0140530872    1.4494572586
23   
torsion grid (-75,)
C        1.0783168599    0.2863704268   -0.4669438289
C       -1.2066517204   -0.6726880085   -0.3461782725
C        0.6373406589    1.3107122865    0.2911246677
C       -1.5742951711    0.4028995843    0.3719742857
C        0.7406456125   -2.2991426794    1.3193288842
C        0.2289282322   -0.9375212241   -0.7093515591
C        1.4660427171   -3.4954783707    1.9297031017
C        1.9654325182   -2.7207369013   -0.7617712673
N       -0.6551692735    1.3560291938    0.7830410451
N        0.8032368254   -2.1716076178   -0.0607361253
O        0.1168538281   -1.5246395716    2.0401822804
H        2.0872946363    0.3206094813   -0.8657011438
H       -1.9585463708   -1.3935906144   -0.6499644713
H        1.2601325395    2.1682255788    0.5284129707
H       -2.6028871865    0.5815635310    0.6680679615
H        0.2690829337   -1.2036324678   -1.7747589886
H        2.5530314560   -3.3711984358    1.8744945669
H        1.1754905640   -3.5532547858    2.9789309433
H        1.2099658313   -4.4345375216    1.4291071702
H        1.7779423385   -2.6871763039   -1.8385677010
H        2.8873840885   -2.1578631560   -0.5584509253
H        2.1329261719   -3.7646035102   -0.4936900614
H       -0.9732464270    2.1782271185    1.2712063957
23   
torsion grid (-60,)
C        1.0487305639    0.2450953386   -0.5602833602
C       -1.2235498868   -0.6468910011   -0.1527934567
C        0.6819143356    1.3611562157    0.1010805598
C       -1.5212235452    0.5141250762    0.4526321321
C        0.5432928155   -2.5709791065    1.2859344214
C        0.1576767573   -0.9745703397   -0.6481324483
C        1.4697757852   -3.6294966652    1.8829938790
C        2.0740918078   -2.5480455783   -0.6407024592
N       -0.5602793535    1.4946899370    0.6987227264
N        0.8057424232   -2.1821665226   -0.0123922129
O       -0.3980432365   -2.1406861892    1.9505889415
H        2.0283921897    0.2186870068   -1.0260690347
H       -2.0054822156   -1.3866245385   -0.2808414828
H        1.3399868937    2.2209001580    0.1885238120
H       -2.5194406393    0.7347861585    0.8155869195
H        0.0802000261   -1.2882790665   -1.7007061551
H        2.5112600731   -3.2934040224    1.9143292928
H        1.1262786113   -3.8240277623    2.8989177113
H        1.4377903205   -4.5637381299    1.3125109485
H        2.0031139144   -2.3525004005   -1.7147332052
H        2.9259876048   -1.9775749499   -0.2474123637
H        2.2833104773   -3.6117363798   -0.5198558265
H       -0.8702740597    2.4182467937    0.9615605895
23   
torsion grid (-45,)
C        0.9786168916    0.6348813430    0.4541581533
C       -0.4644982961   -0.5229114945   -1.1401886573
C       -0.1223869529    1.1818927774    1.0069492001
C       -1.5220179056    0.0538742363   -0.5416455163
C        0.9362884049   -3.0139629745   -0.4425307942
C        0.9026346165   -0.5422273013   -0.4928587531
C        1.1856405589   -4.3230523699    0.3006674788
C        2.2656285174   -1.7917536924    1.1944486070
N       -1.3984475154    0.7743006454    0.6486680640
N        1.1397163545   -1.8362182529    0.2585121272
O        0.5337286683   -3.0429842685   -1.6063418832
H        1.9463469726    1.0480049157    0.7198106041
H       -0.6047973045   -1.0454112851   -2.0752000331
H       -0.0666330451    1.9914953781    1.7285906586
H       -2.5205845128    0.0161957816   -0.9657825086
H        1.6848566034   -0.4729265135   -1.2610637110
H        0.8663923940   -4.2855966024    1.3456554686
H        0.6310722000   -5.1025770533   -0.2232320297
H        2.2481044251   -4.5888587981    0.2739813218
H        3.2149760470   -1.5836125587    0.6772216165
H        2.0984650817   -1.0100804801    1.9377894031
H        2.3648392609   -2.7369554651    1.7250328553
H       -2.1743824619    1.3562347566    0.9292754768
23   
torsion grid (-30,)
C        1.0217751630    0.6190412743    0.3655827738
C       -0.5815611220   -0.5788732366   -1.0487168694
C       -0.0152101751    1.2729306122    0.9265854491
C       -1.5680881592    0.1000298309   -0.4370036644
C        1.0161038688   -3.0382576493   -0.5073082986
C        0.8348426841   -0.5918480746   -0.5167279716
C        1.3608586572   -4.3534377570    0.1826418885
C        2.0753383142   -1.8135158822    1.3291066476
N       -1.3311978992    0.9237147155    0.6659448608
N        1.1013405578   -1.8801761311    0.2399866854
O        0.6490882768   -3.0400240103   -1.6850844337
H        2.0250207817    0.9815305562    0.5664737361
H       -0.8097906121   -1.1888092035   -1.9116988934
H        0.1280370438    2.1229077618    1.5871500779
H       -2.5976191920    0.0618097785   -0.7794008106
H        1.5467854441   -0.5744233067   -1.3514887683
H        0.8928666345   -4.4421853606    1.1674867129
H        1.0095043746   -5.1607415138   -0.4605082919
H        2.4435251127   -4.4598536461    0.3111304298
H        3.0991858684   -1.6424246702    0.9632442141
H        1.8110948300   -0.9986553748    2.0046936738
H        2.0660741974   -2.7367477073    1.9070280474
H       -2.0544156467    1.5757597187    0.9327999530
23   
torsion grid (-15,)
C        1.0589999006    0.5984814853    0.2912932469
C       -0.6738008074   -0.6195801860   -0.9575826624
C        0.0799521284    1.3368626463    0.8517989479
C       -1.5963499808    0.1403008088   -0.3420735523
C        1.0860848793   -3.0540605015   -0.5624714367
C        0.7796948718   -0.6288988450   -0.5383460877
C        1.5208234492   -4.3568223438    0.0976207716
C        1.8956710976   -1.8457269934    1.4224350687
N       -1.2626272913    1.0424769101    0.6716630668
N        1.0898912662   -1.9132298413    0.2066506585
O        0.7250705616   -3.0453544982   -1.7437732352
H        2.0876750419    0.9108279657    0.4433370217
H       -0.9758883216   -1.2975162977   -1.7451776945
H        0.2947911792    2.2104847264    1.4600356919
H       -2.6489741331    0.1034497902   -0.6054782329
H        1.4197000284   -0.6455872563   -1.4278405592
H        0.9437059438   -4.5660852256    1.0039872831
H        1.3611549759   -5.1592234787   -0.6227766383
H        2.5803711961   -4.3343648956    0.3737100334
H        2.9668802687   -1.7070615622    1.2137842111
H        1.5562154112   -1.0083408788    2.0334683959
H        1.7733745014   -2.7546985553    2.0118325003
H       -1.9388571643    1.7514177505    0.9158203501
23   
torsion grid (0,)
C        1.0941292842    0.5837787239    0.2180575862
C       -0.7395182723   -0.6514105715   -0.8725033667
C        0.1641152027    1.3770341265    0.7871035042
C       -1.6080157314    0.1620924889   -0.2472292099
C        1.1613102951   -3.0592622390   -0.6130864328
C        0.7409961615   -0.6539628886   -0.5642320932
C        1.6481428940   -4.3451544752    0.0424276423
C        1.7277674919   -1.8709026687    1.4800141461
N       -1.1945396646    1.1193008135    0.6839044040
N        1.1042805876   -1.9297924138    0.1632733356
O        0.8159551181   -3.0511224411   -1.8002163488
H        2.1394465197    0.8582742297    0.3244034661
H       -1.1019152060   -1.3769723869   -1.5905377211
H        0.4336670704    2.2644251034    1.3520602267
H       -2.6771918933    0.1245490875   -0.4323754012
H        1.3100196551   -0.6940614273   -1.4984978176
H        0.9927686295   -4.6458400415    0.8667530528
H        1.6421705459   -5.1261410853   -0.7179636058
H        2.6613420713   -4.2417359826    0.4441858858
H        2.8179975984   -1.7385315078    1.4282030251
H        1.3110994792   -1.0303032261    2.0362894118
H        1.5161777109   -2.7795770456    2.0456408744
H       -1.8366465449    1.8630665513    0.9162425844
23   
torsion grid (15,)
C        1.1311387374    0.5715652573    0.1317789029
C       -0.7896729606   -0.6704637063   -0.7971531802
C        0.2507034491    1.3981551939    0.7309487847
C       -1.6047925788    0.1758327265   -0.1437396341
C        1.2452657829   -3.0596926825   -0.6587546416
C        0.7093154853   -0.6753096557   -0.5996757014
C        1.7599931310   -4.3253535730    0.0141089780
C        1.5468107496   -1.8890770628    1.5081120192
N       -1.1172079459    1.1632798682    0.7180649626
N        1.1203103923   -1.9364928799    0.1153777490
O        0.9422645310   -3.0616020628   -1.8577525735
H        2.1876667863    0.8187824740    0.1789064456
H       -1.2088399404   -1.4220945061   -1.4564153307
H        0.5687962327    2.2928421460    1.2578334665
H       -2.6850424103    0.1418629633   -0.2478597592
H        1.2081583884   -0.7415012168   -1.5702373318
H        1.0413700741   -4.6998435175    0.7512734011
H        1.8935972807   -5.0808636468   -0.7602001548
H        2.7110524065   -4.1621256114    0.5307152999
H        2.6285909802   -1.7289143212    1.6139965986
H        1.0345453298   -1.0679006975    2.0109712747
H        1.2806486738   -2.8122827550    2.0259403217
H       -1.7311135722    1.9289479900    0.9556772511
23   
torsion grid (30,)
C        1.1754370226    0.5477882093    0.0174162896
C       -0.8385467254   -0.6690180154   -0.7350111543
C        0.3629949311    1.3934158775    0.6810491555
C       -1.5824040727    0.1971898992   -0.0241845773
C        1.3460776926   -3.0622353907   -0.6938429892
C        0.6708568391   -0.7037529461   -0.6523626493
C        1.8728890168   -4.3023381176    0.0173308608
C        1.3161134532   -1.8927356072    1.5059563650
N       -1.0067682908    1.1806439932    0.7866309626
N        1.1072247221   -1.9463961501    0.0645930280
O        1.1399180701   -3.0792883025   -1.9127417843
H        2.2376239283    0.7704708588   -0.0242691880
H       -1.3257012951   -1.4178012688   -1.3504625178
H        0.7378532777    2.2857379081    1.1734100293
H       -2.6680664028    0.1840938493   -0.0397996671
H        1.0966709365   -0.8101040516   -1.6519282644
H        1.1069780990   -4.7399912947    0.6668597452
H        2.1384209779   -5.0323569510   -0.7474031587
H        2.7502382025   -4.0857922652    0.6345971887
H        2.3270254667   -1.5582635122    1.7718706317
H        0.6019890254   -1.1944213371    1.9470841427
H        1.1416941613   -2.8696620346    1.9580197444
H       -1.5849600333    1.9625673735    1.0591049555
23   
torsion grid (45,)
C        1.1938817619    0.4850762004   -0.1185200064
C       -0.9357605083   -0.6490757442   -0.6493161983
C        0.4931020860    1.3680709404    0.6181835327
C       -1.5667756381    0.2602645306    0.1165446886
C        1.5029581890   -3.0391787282   -0.7232430086
C        0.5703412512   -0.7571682341   -0.7043926142
C        2.0416091147   -4.2410129436    0.0431703936
C        1.0336509671   -1.9499706451    1.4719932777
N       -0.8702127740    1.2159690258    0.8603276354
N        1.0197999622   -1.9877554671    0.0144004409
O        1.5012939174   -3.0359714221   -1.9588078300
H        2.2553918405    0.6547374823   -0.2729394248
H       -1.5198603752   -1.3736102858   -1.2077839100
H        0.9519320704    2.2456348993    1.0637014657
H       -2.6486901891    0.3046545042    0.1980350010
H        0.9041338555   -0.9167079929   -1.7305078276
H        1.2368416404   -4.7681029981    0.5670247515
H        2.4891593593   -4.9204596583   -0.6821439455
H        2.7926815309   -3.9558275706    0.7862203417
H        1.9605220864   -1.5186801314    1.8699411549
H        0.1975257522   -1.3385529701    1.8193965476
H        0.9028290880   -2.9491250921    1.8885900767
H       -1.3827959859    2.0245430245    1.1820426058
23   
torsion grid (60,)
C        1.1870312320    0.4014323683   -0.2508198322
C       -1.0426443125   -0.6288717534   -0.5442423914
C        0.6091733871    1.3376715420    0.5248928664
C       -1.5505871819    0.3472346321    0.2325810159
C        1.6575788776   -2.9689005742   -0.7132663459
C        0.4419849200   -0.8216468728   -0.7294037145
C        2.2161493814   -4.1448902393    0.0778396605
C        0.7746601189   -2.0744729425    1.4351692903
N       -0.7381201248    1.2750009406    0.8835947666
N        0.9165027922   -2.0449930588   -0.0165818051
O        1.8632300986   -2.8778162492   -1.9276011314
H        2.2388600421    0.4951911490   -0.5030958747
H       -1.7179579847   -1.3286267976   -1.0266295445
H        1.1544908346    2.1940168515    0.9102112631
H       -2.6176627015    0.4659974676    0.3952394604
H        0.6762146410   -1.0278501620   -1.7746882498
H        1.4117758536   -4.7772009019    0.4686414055
H        2.8323242775   -4.7366851615   -0.5989123503
H        2.8227632648   -3.8165762407    0.9276179466
H        1.6447929127   -1.6448420453    1.9480331285
H       -0.1055985418   -1.4919999132    1.7130591774
H        0.6208195865   -3.0934256009    1.7940265739
H       -1.1722223709    2.1200042861    1.2262518330
23   
torsion grid (75,)
C        1.1726551664    0.4651317323   -0.3134269943
C       -1.0057896694   -0.6956341418   -0.5020710647
C        0.5635194301    1.4018585879    0.4374800704
C       -1.5461666539    0.2850465314    0.2460997442
C        1.7798090617   -2.9123655429   -0.6592726479
C        0.4817543853   -0.8150104174   -0.7170215535
C        2.2619986736   -4.1298680726    0.1197683389
C        0.6793898252   -2.1173776915    1.4332267396
N       -0.7701765103    1.2815397305    0.8361261922
N        1.0547331076   -1.9733796034    0.0312776652
O        2.0507139463   -2.7903193289   -1.8583866546
H        2.2110319513    0.5994803050   -0.5989185080
H       -1.6558676675   -1.4478321536   -0.9386932610
H        1.0696126108    2.3024644586    0.7721532764
H       -2.6140846683    0.3553982211    0.4298841209
H        0.7027368317   -1.0498024580   -1.7594733000
H        1.4442863464   -4.6374115285    0.6407643131
H        2.7196664117   -4.8168395344   -0.5919866780
H        3.0108321403   -3.8490546991    0.8682190733
H        1.4623261368   -2.6256529344    1.9972473929
H        0.5542346842   -1.1236644530    1.8693516143
H       -0.2619844609   -2.6665894318    1.5593696098
H       -1.2416720764    2.1176331483    1.1501996591
23   
torsion grid (90,)
C        1.1571998900    0.3793334935   -0.4201083785
C       -1.0889349084   -0.6641395284   -0.3760364129
C        0.6593724875    1.3896488880    0.3155412274
C       -1.5188325423    0.3960518311    0.3354994976
C        1.8879107825   -2.8002309835   -0.5922510676
C        0.3662712651   -0.8764831953   -0.6989527861
C        2.4177603538   -4.0266344707    0.1404236317
C        0.4636416732   -2.3088310858    1.3957785189
N       -0.6503982494    1.3759417652    0.8072706239
N        0.9537336602   -2.0318237238    0.0513251578
O        2.3011065518   -2.5190889827   -1.7229534397
H        2.1783632870    0.4257194331   -0.7830054790
H       -1.8136178243   -1.3963986163   -0.7189921446
H        1.2400797007    2.2722085889    0.5666724024
H       -2.5665477626    0.5427487896    0.5805330737
H        0.4879078271   -1.1605069729   -1.7464415821
H        1.6143339770   -4.6602218422    0.5282941698
H        3.0203601090   -4.5967737243   -0.5667171552
H        3.0527447270   -3.7364413322    0.9846837391
H        1.2268220443   -2.8119383558    1.9900804354
H        0.2287235225   -1.3652320029    1.8936530716
H       -0.4433915178   -2.9263428020    1.3924412535
H       -1.0510500510    2.2571855532    1.0951787914
23   
torsion grid (105,)
C        1.1494008334    0.3421599467   -0.4901736304
C       -1.1174837518   -0.6266958877   -0.2550367079
C        0.7220711201    1.4113986393    0.2042291492
C       -1.4768284139    0.4912511026    0.4071289293
C        1.9350183444   -2.7194540255   -0.5349194519
C        0.3057359055   -0.8991250293   -0.6599754686
C        2.5016659581   -3.9482814225    0.1638426138
C        0.3321163940   -2.5004390975    1.3480374793
N       -0.5598953603    1.4728625746    0.7610728096
N        0.9193045912   -2.0484936535    0.0929023457
O        2.3911057532   -2.3448856691   -1.6216232077
H        2.1490701041    0.3306512493   -0.9093497016
H       -1.8833932078   -1.3544291221   -0.5058317871
H        1.3427742813    2.2866968861    0.3705145586
H       -2.5049650124    0.6829362261    0.6995515753
H        0.3468987837   -1.2213567853   -1.7042505426
H        1.7219266468   -4.6651331852    0.4395707573
H        3.2055344076   -4.4229463305   -0.5198713185
H        3.0348515868   -3.6689055497    1.0791865298
H        1.1036115348   -2.8636025275    2.0296943060
H       -0.1672834805   -1.6595143059    1.8309410847
H       -0.4101973371   -3.2973540918    1.2043763080
H       -0.9174806785    2.3804107822    1.0219005178
23   
torsion grid (120,)
C        1.1273285296    0.3189995957   -0.5780429091
C       -1.1309095095   -0.5987479420   -0.1591086368
C        0.7628739251    1.4193121256    0.1030863396
C       -1.4284009252    0.5476376526    0.4855987730
C        1.9718784739   -2.6529364962   -0.4702590768
C        0.2606557872   -0.9169765679   -0.6343628959
C        2.5755230202   -3.8713403627    0.2160523562
C        0.2216699415   -2.6402989608    1.2788230946
N       -0.4743689039    1.5205837173    0.7475113188
N        0.9092682926   -2.0400566454    0.1419940872
O        2.4425710559   -2.2318304486   -1.5333087609
H        2.0919154640    0.2782127270   -1.0690986284
H       -1.9289052535   -1.3102980795   -0.3482651163
H        1.4032130652    2.2920960858    0.1877070825
H       -2.4344051320    0.7715845123    0.8279048102
H        0.2311386963   -1.2860305209   -1.6650013445
H        1.8357295521   -4.6630405715    0.3724368238
H        3.3752738434   -4.2477142548   -0.4218387391
H        2.9942017885   -3.6102357231    1.1938871801
H        0.9400527576   -3.0373816365    1.9980348352
H       -0.3655873181   -1.8738210924    1.7861692272
H       -0.4597109257   -3.4507197086    0.9831285072
H       -0.7974472227    2.4407533186    1.0088688206
23   
torsion grid (135,)
C        0.8526615408    0.5606108067    0.7316614184
C       -0.2654059744   -0.4527205523   -1.2224333076
C       -0.2812175520    1.2406526518    0.9757414262
C       -1.3572476565    0.2805099332   -0.9246534653
C        2.2227773975   -2.1384390946    1.0205889456
C        0.9181372351   -0.5444731394   -0.2964907369
C        2.4441321601   -3.5281712256    1.6048147195
C        0.1950186583   -2.9958916790   -0.0826395343
N       -1.4510501347    1.0272619909    0.2402567305
N        1.0265538027   -1.8927347652    0.3889609336
O        3.0919543837   -1.2680154538    1.1363761561
H        1.7413833758    0.7614034847    1.3154331324
H       -0.2415962869   -0.9842228281   -2.1686066171
H       -0.3498127212    2.0006714686    1.7481165214
H       -2.2131015439    0.3367754706   -1.5908007348
H        1.8490570197   -0.4463929964   -0.8678281771
H        2.4764186792   -4.2943297682    0.8229660195
H        3.4003833814   -3.5163274500    2.1279779658
H        1.6522207189   -3.8031966284    2.3089071706
H       -0.8102666399   -2.6255669217   -0.2881575050
H        0.5849283224   -3.4584724707   -1.0013450576
H        0.1120200867   -3.7668731322    0.6840024587
H       -2.1786965898    1.7249083314    0.2966114661
23   
torsion grid (150,)
C        0.9362867516    0.5801444337    0.6249960054
C       -0.3556955934   -0.4628380987   -1.1937126962
C       -0.1730137788    1.2597937301    0.9657549971
C       -1.4216111007    0.2634175279   -0.8008949062
C        2.1476202986   -2.1181058866    1.0765185993
C        0.8919534001   -0.5695217217   -0.3543873005
C        2.3318025849   -3.4799630197    1.7368994433
C        0.3108192513   -3.0387118705   -0.2561476210
N       -1.4116537197    1.0115687494    0.3672151782
N        0.9829015528   -1.9004916066    0.3690735676
O        3.0140762475   -1.2493676813    1.2075029424
H        1.8791704196    0.8149781119    1.0984107203
H       -0.4049133937   -0.9796882355   -2.1465923166
H       -0.1649392049    2.0516894498    1.7084975802
H       -2.3308565132    0.3219440944   -1.3919112969
H        1.7803015373   -0.5271860289   -0.9989453290
H        2.5603443627   -4.2523559183    0.9945377546
H        3.1764160438   -3.3983472075    2.4215001112
H        1.4433549728   -3.7966057360    2.2913523940
H       -0.7198531592   -2.7684758908   -0.4909448403
H        0.8058134957   -3.3569356733   -1.1862587484
H        0.2812776008   -3.8873987248    0.4260023034
H       -2.1403503931    1.6994232352    0.4909933864
23   
torsion grid (165,)
C        1.0213808536    0.5926715050    0.4864399034
C       -0.4585952419   -0.4808888190   -1.1545226079
C       -0.0474826514    1.2709432269    0.9419546260
C       -1.4823974864    0.2351522435   -0.6479109636
C        2.0585491937   -2.0939226733    1.1343540665
C        0.8610633478   -0.5967065443   -0.4300668634
C        2.1733518320   -3.4253740457    1.8711831406
C        0.4706215294   -3.0688490341   -0.4384050508
N       -1.3460634052    0.9877499899    0.5096241468
N        0.9553271493   -1.9120044441    0.3172522165
O        2.9141428652   -1.2256698022    1.3134430846
H        2.0107839467    0.8614907803    0.8252731534
H       -0.5998197467   -0.9890648887   -2.1024534393
H        0.0419979756    2.0928911339    1.6455685174
H       -2.4502459397    0.2901437384   -1.1375470229
H        1.6858363123   -0.6059707536   -1.1580031197
H        2.6193204055   -4.1903141819    1.2260678286
H        2.8422192811   -3.2684156181    2.7182645624
H        1.2095754017   -3.7969152519    2.2296422883
H       -0.5788259390   -2.9261641875   -0.7030488692
H        1.0462980262   -3.2175127334   -1.3650981015
H        0.5408820958   -3.9769695535    0.1572536729
H       -2.0686681426    1.6606659456    0.7201947595
23   
torsion grid (180,)
C        1.1694382488    0.6328752097    0.1980077356
C       -0.6360694563   -0.6307321286   -0.9012977262
C        0.2239217857    1.4049331885    0.7594128033
C       -1.5251841873    0.1638178876   -0.2722608056
C        1.7107659246   -2.0207109066    1.3644006599
C        0.8452703724   -0.6115357201   -0.5840300736
C        1.7959948688   -3.4337579429    1.9418792820
C        0.9238095950   -3.0919028180   -0.7181500827
N       -1.1376342229    1.1146741523    0.6565150148
N        1.2560842016   -1.9107009738    0.0724722361
O        2.0619400676   -1.0618479425    2.0540504480
H        2.2083989383    0.9044203513    0.3321487835
H       -1.0091051996   -1.3286584054   -1.6437477513
H        0.4731235270    2.2864490288    1.3406102845
H       -2.5906349732    0.1093007079   -0.4761087941
H        1.4218346928   -0.6064474299   -1.5212546704
H        2.6231705558   -3.9946878221    1.4928968991
H        1.9899661419   -3.3328466666    3.0097915542
H        0.8782128609   -4.0097314418    1.7901468971
H       -0.0983505555   -3.4509559583   -0.5405541725
H        1.0139250275   -2.8427027049   -1.7802081841
H        1.6193862444   -3.9078545219   -0.5202633871
H       -1.7990127955    1.8355688896    0.9050029780
