21   
torsion grid (-165,)
C        7.3384657906   -2.3668678409   -1.3612629370
C        6.8919874224   -1.0477757028   -1.4916427965
C        6.4723258189   -3.3390472229   -0.8551863560
C        5.5911458279   -0.7114198956   -1.1117790407
C        5.1664216595   -3.0057349700   -0.4811328126
C        4.7184677129   -1.6831254831   -0.5970593280
C        0.7982222593   -1.4483760607    1.0028595316
C        3.3074352961   -1.2341335465   -0.2701317834
O        2.9900553191   -2.4937199244    2.0889651852
O        2.0181008974   -3.5804038667   -0.0082622882
S        2.3368693135   -2.3746644283    0.7762468217
H        8.3513329519   -2.6331077920   -1.6518253133
H        7.5542511020   -0.2811040463   -1.8852209069
H        6.8089590656   -4.3672195787   -0.7524984733
H        5.2536719548    0.3185627924   -1.2107367602
H        4.5078937173   -3.7817659134   -0.1078023457
H        0.1493630620   -2.1002015141    1.5909917095
H        0.3479539191   -1.2481723341    0.0292869492
H        1.0067344488   -0.5281211148    1.5505326917
H        2.7141776893   -1.1168359005   -1.1834749298
H        3.3192374596   -0.2805263394    0.2655519826
21   
torsion grid (-150,)
C        7.3528222497   -2.3605323521   -1.3406075395
C        6.9322760202   -1.0274863958   -1.3600805591
C        6.4474707468   -3.3623361432   -0.9784863049
C        5.6184944920   -0.7037200399   -1.0115539407
C        5.1296893988   -3.0430096384   -0.6399568525
C        4.7093253468   -1.7044130364   -0.6379606138
C        0.8214417183   -1.4618480044    1.0234875625
C        3.2797005212   -1.2901865742   -0.3637493009
O        3.1044457341   -2.2208739928    2.1610715806
O        2.1364504736   -3.6413570910    0.2705476016
S        2.4068308008   -2.3222557643    0.8705976529
H        8.3754447697   -2.6158445043   -1.6058371967
H        7.6247814721   -0.2388893551   -1.6424550075
H        6.7641839029   -4.4018615435   -0.9643961700
H        5.3022878077    0.3373772993   -1.0209747098
H        4.4343938094   -3.8343843264   -0.3810618398
H        0.2291456304   -2.0599694946    1.7186468210
H        0.3332438809   -1.4249878650    0.0482683639
H        0.9891410270   -0.4638266487    1.4310910966
H        2.6659621505   -1.3610046529   -1.2685836405
H        3.2357260261   -0.2658562355    0.0152397428
21   
torsion grid (-135,)
C        7.3451596494   -2.3663127501   -1.3125886882
C        6.9531729816   -1.0281298335   -1.2190153682
C        6.4032220685   -3.3788294032   -1.1013804606
C        5.6279337313   -0.7087938545   -0.9098566359
C        5.0762008622   -3.0624278627   -0.8023865381
C        4.6819543057   -1.7193850302   -0.6892165093
C        0.8287412657   -1.4654296953    1.0301988660
C        3.2447565496   -1.3272201376   -0.4451638509
O        3.1845605421   -1.8979322749    2.1907048331
O        2.2792229190   -3.6356264520    0.5483669250
S        2.4681527353   -2.2298203742    0.9502680129
H        8.3756628264   -2.6185874460   -1.5486985921
H        7.6756186496   -0.2330183985   -1.3833466342
H        6.7005993740   -4.4216028848   -1.1745027198
H        5.3315620911    0.3347841000   -0.8299847241
H        4.3506921311   -3.8540608235   -0.6456108769
H        0.2948927984   -1.9936270758    1.8225383910
H        0.3180357773   -1.6031518251    0.0757427929
H        0.9343975140   -0.4096790326    1.2844241676
H        2.6114931262   -1.5524622255   -1.3098591204
H        3.1597643021   -0.2649600784   -0.2039138895
21   
torsion grid (-120,)
C        7.3434379845   -2.3770498997   -1.2780355332
C        6.9687136148   -1.0456964274   -1.0762816570
C        6.3755961321   -3.3863625824   -1.2230049123
C        5.6323251334   -0.7279500770   -0.8175183262
C        5.0390736049   -3.0701787651   -0.9720703866
C        4.6599598394   -1.7350618904   -0.7584608731
C        0.8519087444   -1.4954121234    1.0370026462
C        3.2188725292   -1.3643105466   -0.5300083719
O        3.2648581782   -1.5738228442    2.1574913415
O        2.4718451571   -3.5859865996    0.7921673117
S        2.5478686947   -2.1288935807    0.9995984465
H        8.3823107156   -2.6272919672   -1.4767689859
H        7.7135396455   -0.2554140297   -1.1178034019
H        6.6618468978   -4.4233133476   -1.3775153535
H        5.3465552230    0.3081296899   -0.6516995606
H        4.2922910441   -3.8563301722   -0.9211433621
H        0.3888057090   -1.9377868173    1.9211064484
H        0.3261110894   -1.8156073526    0.1360408258
H        0.8750780143   -0.4082444803    1.1272036005
H        2.5686347870   -1.7208838400   -1.3350161430
H        3.0945762103   -0.2857203122   -0.4103470860
21   
torsion grid (-105,)
C        7.3283397573   -2.3905589735   -1.2302925960
C        6.9570154830   -1.0773888986   -0.9258551968
C        6.3484295784   -3.3847073563   -1.3299403545
C        5.6110694259   -0.7611008935   -0.7230582663
C        5.0030065879   -3.0696453323   -1.1307580075
C        4.6264391454   -1.7527314166   -0.8255451626
C        0.8775881399   -1.4832143188    1.0649749297
C        3.1813346713   -1.4048041512   -0.6099784177
O        3.3292422059   -1.2642727002    2.0753605436
O        2.6293525992   -3.4819353112    1.0070882176
S        2.6099642550   -2.0091177126    1.0301705804
H        8.3748248764   -2.6387036698   -1.3874718903
H        7.7130283760   -0.3011070654   -0.8434772567
H        6.6330181022   -4.4076760084   -1.5612580208
H        5.3255385873    0.2576707925   -0.4730610863
H        4.2451431679   -3.8452627159   -1.1918642146
H        0.4800274146   -1.8275714270    2.0216444258
H        0.3402251737   -1.9556579925    0.2411097184
H        0.8307618234   -0.3945972744    1.0069448051
H        2.5241520380   -1.8835966233   -1.3413266137
H        3.0138354590   -0.3253214944   -0.6114474600
21   
torsion grid (-90,)
C        7.3207185541   -2.3907126359   -1.2050244793
C        6.9273807944   -1.1152564939   -0.7860724312
C        6.3534093126   -3.3706809097   -1.4522190985
C        5.5728409313   -0.8180116272   -0.6201017776
C        4.9985712098   -3.0748069666   -1.2869053528
C        4.6001498243   -1.7938853343   -0.8788854543
C        0.8988287983   -1.4599662526    1.0828571814
C        3.1464278433   -1.4850109304   -0.6730890236
O        3.3658299283   -0.9967600881    1.9635108252
O        2.7512340539   -3.3647057010    1.2096003721
S        2.6539429956   -1.9044763827    1.0490204152
H        8.3751214645   -2.6209490551   -1.3340570647
H        7.6755940387   -0.3534792294   -0.5841562113
H        6.6541184334   -4.3657528463   -1.7689874598
H        5.2690464875    0.1671160349   -0.2760683441
H        4.2483548294   -3.8417422444   -1.4599513487
H        0.5507929493   -1.6902895115    2.0916505608
H        0.3603771883   -2.0640465967    0.3508267376
H        0.7937721196   -0.3925741797    0.8820079655
H        2.4986372219   -2.0803638040   -1.3213557238
H        2.9248693783   -0.4222802916   -0.7986066381
21   
torsion grid (-75,)
C        7.3230384151   -2.3888968279   -1.2108827253
C        6.9064955463   -1.1721133698   -0.6593853503
C        6.3725725391   -3.3403297434   -1.5939739312
C        5.5459418839   -0.9037188528   -0.4981157230
C        5.0106477053   -3.0748310420   -1.4301398873
C        4.5889325498   -1.8504529736   -0.8944754448
C        0.9059185440   -1.4262730155    1.0916297035
C        3.1259212989   -1.5840579051   -0.6877097291
O        3.3551214498   -0.7259165733    1.8521476832
O        2.8541850407   -3.2026719591    1.4478512362
S        2.6803430383   -1.7873014557    1.0855606050
H        8.3826514692   -2.5959567025   -1.3364111592
H        7.6418250689   -0.4342876690   -0.3497482548
H        6.6906141086   -4.2906699128   -2.0142290263
H        5.2235482663    0.0317746099   -0.0501998828
H        4.2737421417   -3.8231342222   -1.7111270797
H        0.5824557170   -1.5348131704    2.1286564989
H        0.3893424865   -2.1491261847    0.4580847505
H        0.7449449127   -0.4022003245    0.7510694056
H        2.4973934203   -2.2853825735   -1.2412741443
H        2.8482765514   -0.5569722666   -0.9410504571
21   
torsion grid (-60,)
C        7.3376519841   -2.3902976759   -1.2535068672
C        6.9163082920   -1.2519941689   -0.5571866523
C        6.3893968864   -3.2885838487   -1.7511491021
C        5.5556631767   -1.0046328125   -0.3651828193
C        5.0271575052   -3.0465656891   -1.5530971285
C        4.5989799985   -1.8975793514   -0.8745189327
C        0.8922259613   -1.3988515923    1.0722589874
C        3.1266484062   -1.6678530083   -0.6608645271
O        3.2729694560   -0.4149733096    1.7180065861
O        2.9576372741   -2.9530198562    1.7044577570
S        2.6875302569   -1.6295029380    1.1230921616
H        8.3978758704   -2.5784638681   -1.4015071439
H        7.6495209635   -0.5564386442   -0.1575995489
H        6.7077154402   -4.1800672255   -2.2849697505
H        5.2337239799   -0.1292436160    0.1899542725
H        4.2934763675   -3.7571917974   -1.9263666456
H        0.5689162489   -1.3554794343    2.1140889977
H        0.4329882736   -2.2518873270    0.5702184366
H        0.6623340283   -0.4597102585    0.5665053625
H        2.5268251478   -2.4652849679   -1.1051918971
H        2.7956341563   -0.7005117432   -1.0524064881
21   
torsion grid (-45,)
C        7.2627994982   -2.1667067492   -1.4569579205
C        6.0821740737   -2.5405607901   -2.1071864401
C        7.2176997330   -1.7694815685   -0.1176968656
C        4.8624866870   -2.5293703028   -1.4265879923
C        5.9970057357   -1.7467638594    0.5624940776
C        4.8137552772   -2.1407822798   -0.0782268379
C        0.8139559750   -1.3421667044    1.0330502059
C        3.5217876682   -2.1027895154    0.7027419703
O        1.7226057911   -2.2318423468   -1.2965505082
O        2.4704592510    0.0766767499   -0.4921038921
S        2.1321653841   -1.3257216529   -0.2081485176
H        8.2089278738   -2.1783530433   -1.9917739504
H        6.1082419542   -2.8399204796   -3.1516174341
H        8.1271014187   -1.4675409891    0.3951134356
H        3.9518258505   -2.8192282698   -1.9405414825
H        5.9662388142   -1.4188466371    1.5992162899
H       -0.0672145110   -0.9361150289    0.5326025724
H        1.0995008854   -0.7055719526    1.8718434382
H        0.6269141117   -2.3696378535    1.3493670733
H        3.6372402114   -1.5294914923    1.6256011818
H        3.1617199242   -3.1080279102    0.9481336268
21   
torsion grid (-30,)
C        7.2830679309   -2.2000351681   -1.4481024821
C        6.0855608701   -2.4192340620   -2.1348592651
C        7.2500639485   -1.9112883808   -0.0805470010
C        4.8596048350   -2.3597860794   -1.4661030841
C        6.0254448234   -1.8409444627    0.5880695633
C        4.8216291528   -2.0772555961   -0.0926829198
C        0.8055916664   -1.3515395926    1.0413644328
C        3.5363338253   -1.9948109910    0.7034421904
O        1.6853368557   -2.5086215308   -1.1805098541
O        2.3137733432   -0.0718894693   -0.7387007307
S        2.0749799809   -1.4368344227   -0.2465658690
H        8.2328279826   -2.2478090749   -1.9743424806
H        6.1013331858   -2.6369241052   -3.1994970209
H        8.1731018519   -1.7301804098    0.4639078008
H        3.9412005581   -2.5450952181   -2.0126665781
H        6.0074507958   -1.5987522864    1.6487053585
H       -0.1172695958   -1.0803095112    0.5250652271
H        1.0753717446   -0.5805742648    1.7646032462
H        0.6992948622   -2.3302310719    1.5121412385
H        3.6392464580   -1.2926121107    1.5346371527
H        3.2482310505   -2.9743329853    1.1016452830
21   
torsion grid (-15,)
C        7.3370873598   -2.2908197865   -1.4637939711
C        6.1520756249   -2.3588389019   -2.2001553156
C        7.2788961079   -2.0714722738   -0.0835224231
C        4.9113180151   -2.2143403076   -1.5705379772
C        6.0419419322   -1.9199269690    0.5459673424
C        4.8475578600   -1.9973148202   -0.1878899265
C        0.7937757602   -1.3229611999    0.8626946704
C        3.5551224096   -1.8302492466    0.5880864138
O        1.7423511705   -2.7077059266   -1.1962711161
O        2.2156517804   -0.2002161861   -1.0846084634
S        2.0641542622   -1.5010835513   -0.4145284210
H        8.2975209112   -2.4040349906   -1.9597286536
H        6.1872962777   -2.5250961038   -3.2735237510
H        8.1930023271   -2.0112831596    0.5013548693
H        4.0056218566   -2.2843497487   -2.1621022921
H        6.0053739165   -1.7389659012    1.6185713107
H       -0.1357697478   -1.1295955568    0.3238415462
H        1.0408954312   -0.4760324689    1.5046260885
H        0.7154514803   -2.2523104701    1.4289482489
H        3.6314151553   -0.9908419497    1.2850497157
H        3.3175909638   -2.7367598414    1.1556434528
21   
torsion grid (0,)
C        7.3411311199   -2.3296964210   -1.4601977471
C        6.1689340182   -2.2531856601   -2.2152873976
C        7.2721706787   -2.2075352608   -0.0681417052
C        4.9309040528   -2.0561210176   -1.5937632606
C        6.0381622286   -2.0109115888    0.5538465311
C        4.8565322023   -1.9332451719   -0.2008461342
C        0.7866898391   -1.3613345333    0.8527849338
C        3.5691571560   -1.7179550556    0.5733042060
O        1.7928977648   -2.9322861773   -1.0416523004
O        2.0946488250   -0.4055767093   -1.2551199350
S        2.0435286835   -1.6196824196   -0.4241784482
H        8.2993831377   -2.4828815744   -1.9495547210
H        6.2113805320   -2.3467578412   -3.2971299145
H        8.1760336571   -2.2650260664    0.5327094232
H        4.0379349041   -2.0005650622   -2.2052736665
H        5.9930514794   -1.9169076202    1.6373419790
H       -0.1610451606   -1.2824560559    0.3167346609
H        0.9965207623   -0.4329848291    1.3863093597
H        0.7701867659   -2.2207542113    1.5247716661
H        3.6077578348   -0.7785934035    1.1340624636
H        3.3997921080   -2.5388430092    1.2774718550
21   
torsion grid (15,)
C        7.3285326871   -2.3702105939   -1.4579428196
C        6.1778140729   -2.1478277408   -2.2178168773
C        7.2462366041   -2.3442732305   -0.0618055883
C        4.9501954975   -1.8961323553   -1.5961325140
C        6.0203584672   -2.1001892787    0.5603262827
C        4.8624274705   -1.8660686010   -0.1981839089
C        0.7834107878   -1.4026840363    0.8695430231
C        3.5814479681   -1.6003543414    0.5694614549
O        1.8688365303   -3.1213418568   -0.8457935991
O        1.9879768816   -0.6235574987   -1.3661696650
S        2.0359741818   -1.7308457023   -0.3954717825
H        8.2793545162   -2.5651994399   -1.9469583881
H        6.2297585936   -2.1696052617   -3.3031022717
H        8.1320998766   -2.5204775576    0.5427417162
H        4.0747044244   -1.7136408355   -2.2087308152
H        5.9636366464   -2.0924298584    1.6471798372
H       -0.1753718985   -1.4526189695    0.3498784135
H        0.9371695635   -0.4045039073    1.2824410073
H        0.8356073051   -2.1732609932    1.6401913488
H        3.5721547396   -0.5840251253    0.9784666507
H        3.4735433039   -2.3105542195    1.3941834559
21   
torsion grid (30,)
C        7.3207951491   -2.4243082517   -1.4446189224
C        6.2026063767   -2.0627530239   -2.2013235554
C        7.2204430538   -2.4841055884   -0.0513866509
C        4.9903784081   -1.7538219905   -1.5777367827
C        6.0070213184   -2.1860705135    0.5734402135
C        4.8862816425   -1.8052709398   -0.1798639671
C        0.8040542039   -1.4655405801    0.8987006334
C        3.6104933248   -1.4867699217    0.5708408361
O        2.0026232950   -3.3041194428   -0.6056354561
O        1.9234276189   -0.8901531213   -1.4389695189
S        2.0662817183   -1.8596534865   -0.3377629810
H        8.2603747388   -2.6632238970   -1.9358964121
H        6.2696751894   -2.0212193650   -3.2852449530
H        8.0797596931   -2.7723780957    0.5483777986
H        4.1365053371   -1.4629348062   -2.1800615043
H        5.9322093083   -2.2520192886    1.6569420068
H       -0.1539512235   -1.6271319054    0.4007912316
H        0.9018540881   -0.4204446364    1.1968355634
H        0.9069463658   -2.1413144424    1.7490223335
H        3.5403633357   -0.4185130387    0.8056225356
H        3.5555537255   -2.0565304616    1.5018549685
21   
torsion grid (45,)
C        7.2953050805   -2.4384678187   -1.4622344488
C        6.2299063220   -1.9210576506   -2.2062775182
C        7.1551454157   -2.6093367955   -0.0821456816
C        5.0330674839   -1.5655330743   -1.5800033324
C        5.9546816396   -2.2647147270    0.5450569713
C        4.8908489507   -1.7259821597   -0.1924472176
C        0.8063821147   -1.4646226871    0.8654482673
C        3.6170371310   -1.3654526404    0.5340758452
O        2.1200788234   -3.4209171173   -0.3715406212
O        1.9034459506   -1.1530298796   -1.5314302433
S        2.0965451743   -1.9522034083   -0.3077068610
H        8.2244467029   -2.7124946429   -1.9551106616
H        6.3279283621   -1.7957197372   -3.2813685339
H        7.9726373364   -3.0194632762    0.5049355972
H        4.2117930945   -1.1667118354   -2.1664418826
H        5.8458962362   -2.4174963947    1.6165403942
H       -0.1390097639   -1.7450545563    0.3970844975
H        0.8448733626   -0.3848832249    1.0184533820
H        0.9422993316   -2.0113877240    1.7997694030
H        3.4847594647   -0.2808984363    0.6157778801
H        3.5977445915   -1.8039957359    1.5345378829
21   
torsion grid (60,)
C        7.2666243940   -2.4540093017   -1.4794999019
C        6.2663350789   -1.7850645989   -2.1937958886
C        7.0800989896   -2.7364632130   -0.1233655101
C        5.0880209754   -1.3905853772   -1.5572488481
C        5.8977251883   -2.3491073657    0.5134344686
C        4.9015989410   -1.6604887938   -0.1917566047
C        0.8173647598   -1.4974765077    0.8408189544
C        3.6300302994   -1.2686788385    0.5122333994
O        2.2768552842   -3.5297979910   -0.0651497268
O        1.9356136445   -1.4885881536   -1.5679815467
S        2.1561003529   -2.0739320907   -0.2335431358
H        8.1827937630   -2.7583819254   -1.9788532494
H        6.4015493872   -1.5739584432   -3.2512548974
H        7.8477924303   -3.2639687489    0.4364833793
H        4.3073847785   -0.8865424784   -2.1183515984
H        5.7486006398   -2.5863426819    1.5641910936
H       -0.1002349581   -1.9156515688    0.4225196716
H        0.7789468818   -0.4071705055    0.8178078097
H        0.9783172767   -1.8755255927    1.8515908272
H        3.4294180288   -0.1948979631    0.4399454232
H        3.6425730704   -1.5673156331    1.5628896985
21   
torsion grid (75,)
C        7.2326201025   -2.4727707659   -1.4958841575
C        6.3100890148   -1.6627681665   -2.1675408187
C        6.9839790160   -2.8636567166   -0.1765349460
C        5.1471175486   -1.2385539406   -1.5220139489
C        5.8187024254   -2.4423970631    0.4691391874
C        4.9002788684   -1.6169417314   -0.1934380286
C        0.8235262371   -1.5245949717    0.8365395210
C        3.6332113870   -1.1970306904    0.4938903365
O        2.4116686734   -3.5897995482    0.2966954839
O        1.9870406763   -1.8502254603   -1.5314825500
S        2.2111487866   -2.1919882048   -0.1163752698
H        8.1377133160   -2.8013789195   -2.0000878273
H        6.4939674658   -1.3659522035   -3.1966489373
H        7.6922163304   -3.5001102098    0.3471778316
H        4.4212449248   -0.6276849824   -2.0508090599
H        5.6176547289   -2.7622327740    1.4885420297
H       -0.0575043326   -2.0811694862    0.5112094905
H        0.7057586536   -0.4641479351    0.6080096504
H        1.0036446783   -1.6916313677    1.8997348953
H        3.3698081412   -0.1561182998    0.2857601340
H        3.6768834927   -1.3597582213    1.5732172549
21   
torsion grid (90,)
C        7.2271167239   -2.4767453994   -1.4971725325
C        6.3941169830   -1.5542272208   -2.1391052271
C        6.8849584383   -2.9588482373   -0.2292411991
C        5.2266649454   -1.1109642721   -1.5136056920
C        5.7178459868   -2.5157832736    0.3968912585
C        4.8865276267   -1.5819216250   -0.2376945052
C        0.8310155599   -1.5470752951    0.8629108185
C        3.6177967753   -1.1279796354    0.4222170733
O        2.5241838816   -3.5794586700    0.5828157626
O        1.9826848644   -2.1367482653   -1.4614062444
S        2.2407098763   -2.2655393084   -0.0178371284
H        8.1357054244   -2.8213360900   -1.9841339823
H        6.6510465568   -1.1837576418   -3.1278750462
H        7.5240498540   -3.6825533778    0.2695172204
H        4.5698349908   -0.4091611585   -2.0207097327
H        5.4419447775   -2.9051877716    1.3731978634
H       -0.0231550946   -2.1872333857    0.6339625509
H        0.6538076834   -0.5354318255    0.4942729749
H        1.0334279612   -1.5570028944    1.9351253810
H        3.3062376545   -0.1356870113    0.0868965637
H        3.6852298119   -1.1493064552    1.5128015011
21   
torsion grid (105,)
C        7.2485588688   -2.4649075007   -1.4873169006
C        6.4978051998   -1.4563373688   -2.0990289707
C        6.8051428442   -3.0325154427   -0.2874422271
C        5.3085551041   -1.0169287447   -1.5114170480
C        5.6188877699   -2.5915210099    0.3020002125
C        4.8625662644   -1.5789734896   -0.3079070813
C        0.8324623951   -1.5498089853    0.9001749902
C        3.5857540755   -1.0988893214    0.3207343324
O        2.5892806925   -3.5437822261    0.8329056364
O        1.9384317519   -2.4040275344   -1.3639753296
S        2.2421052706   -2.3300695860    0.0737364662
H        8.1733752041   -2.8084075391   -1.9435026468
H        6.8351295246   -1.0140765957   -3.0326153618
H        7.3828803874   -3.8203488037    0.1885216479
H        4.7188766516   -0.2422300932   -1.9952388676
H        5.2664287369   -3.0439061410    1.2243411924
H       -0.0015365424   -2.2454579245    0.7890063283
H        0.6033900217   -0.6044496785    0.4056530010
H        1.0669062944   -1.4073753543    1.9563020759
H        3.2317977788   -0.1679396867   -0.1278395125
H        3.6744394242   -0.9789288459    1.4041686796
21   
torsion grid (120,)
C        7.2885929268   -2.4304049664   -1.4822167897
C        6.5971349541   -1.3499895083   -2.0373087865
C        6.7588524228   -3.0979965973   -0.3721515020
C        5.3796273915   -0.9431825907   -1.4840493542
C        5.5466243708   -2.6878005196    0.1858780490
C        4.8430222636   -1.6093850877   -0.3743833814
C        0.8301353105   -1.5431456006    0.9190497725
C        3.5568370051   -1.1208498642    0.2366902318
O        2.6292473351   -3.4866294025    1.1211637895
O        1.9238386596   -2.7060368692   -1.2101042485
S        2.2461212065   -2.4075072327    0.1933960645
H        8.2342933185   -2.7509737701   -1.9114424514
H        7.0015132867   -0.8255761062   -2.8990126901
H        7.2920283314   -3.9396501387    0.0619326423
H        4.8397160318   -0.1082111118   -1.9244225821
H        5.1338901890   -3.2131462230    1.0415022664
H        0.0198951078   -2.2741283967    0.9509318812
H        0.5552103583   -0.7023470231    0.2802873559
H        1.0839028641   -1.2178670887    1.9292769317
H        3.1562336913   -0.2589887082   -0.3017463854
H        3.6731891972   -0.8699762927    1.2956292488
21   
torsion grid (135,)
C        7.3189819211   -2.4028767994   -1.4764108890
C        6.6804212166   -1.2585904643   -1.9622146190
C        6.7105586596   -3.1591644441   -0.4689729907
C        5.4382079897   -0.8798608923   -1.4451839031
C        5.4742015389   -2.7771041426    0.0563136635
C        4.8203290814   -1.6383771479   -0.4413405026
C        0.8278921598   -1.5213965545    0.9419284571
C        3.5218683470   -1.1423230157    0.1474669930
O        2.6751661139   -3.3737000487    1.3923604292
O        1.9097896967   -2.9678669381   -1.0130512481
S        2.2508308594   -2.4534660852    0.3215509518
H        8.2830206089   -2.7029517413   -1.8787870517
H        7.1446308018   -0.6620267330   -2.7430894498
H        7.2024298555   -4.0490741556   -0.0851920848
H        4.9425209113    0.0069803020   -1.8338656258
H        5.0117991302   -3.3662548402    0.8416332461
H        0.0427153439   -2.2603150783    1.1130175877
H        0.5109069897   -0.8008520941    0.1864602720
H        1.0959035021   -1.0330526242    1.8802722444
H        3.0738325026   -0.3669918488   -0.4785584447
H        3.6604930523   -0.7519000894    1.1612983647
21   
torsion grid (150,)
C        7.3419739489   -2.3861349789   -1.4617256583
C        6.7561519022   -1.1831741291   -1.8666551592
C        6.6601998482   -3.2165096768   -0.5672883940
C        5.4952957667   -0.8223958369   -1.3846308840
C        5.4037619640   -2.8534428822   -0.0746406345
C        4.8030754917   -1.6571372195   -0.4949005730
C        0.8245023841   -1.5094079128    0.9492307001
C        3.4848451892   -1.1587577507    0.0569514666
O        2.7473691707   -3.2028496027    1.6431140416
O        1.9352909275   -3.2005799716   -0.7795947296
S        2.2741527774   -2.4733399608    0.4527114518
H        8.3202272236   -2.6727989730   -1.8387312348
H        7.2762973717   -0.5266813483   -2.5592202334
H        7.1094421508   -4.1516789247   -0.2436229196
H        5.0431116375    0.1115711697   -1.7120465325
H        4.8972047390   -3.4994219852    0.6344578956
H        0.0697115656   -2.2432113520    1.2384043801
H        0.4734256564   -0.9203298113    0.1006629519
H        1.0827159385   -0.8789660437    1.8016364836
H        2.9879223255   -0.4968632841   -0.6570156196
H        3.6280739127   -0.6204072041    1.0004044504
21   
torsion grid (165,)
C        7.3460471297   -2.3760894856   -1.4440983557
C        6.8149181248   -1.1209491448   -1.7584611794
C        6.5953490059   -3.2666662895   -0.6728559309
C        5.5414157939   -0.7697265564   -1.3062344610
C        5.3225524522   -2.9139513527   -0.2124947021
C        4.7802003279   -1.6630921917   -0.5360912396
C        0.8195779375   -1.4861224601    0.9691034443
C        3.4355590433   -1.1678962230   -0.0398147422
O        2.8280764419   -2.9864766925    1.8472229969
O        1.9609860332   -3.3682810609   -0.5248081366
S        2.2973902892   -2.4560759275    0.5791847052
H        8.3352084439   -2.6558460503   -1.7969562405
H        7.3880849965   -0.4171360940   -2.3562981632
H        7.0003122594   -4.2431598093   -0.4209208261
H        5.1331671729    0.2066245668   -1.5604483444
H        4.7672695134   -3.6157754523    0.3993458618
H        0.1066581392   -2.1976132452    1.3901720254
H        0.4210735376   -1.0486984126    0.0525024654
H        1.0702960106   -0.7228189510    1.7074735212
H        2.8931986860   -0.6548012622   -0.8392172753
H        3.5606965083   -0.4761288205    0.8002440015
21   
torsion grid (180,)
C        7.3483720602   -2.3759928492   -1.4061544863
C        6.8600409233   -1.0841418730   -1.6300303243
C        6.5387552133   -3.3143602378   -0.7626687606
C        5.5730748374   -0.7434256364   -1.2105512366
C        5.2483565595   -2.9748535522   -0.3414198908
C        4.7549814891   -1.6832309988   -0.5629969982
C        0.8178802740   -1.4934444737    1.0064232563
C        3.3740082932   -1.2101973369   -0.1481943661
O        2.9268828364   -2.7752594379    1.9944206993
O        1.9901030181   -3.5142542300   -0.2632584185
S        2.3251314859   -2.4454963617    0.6920386611
H        8.3497100504   -2.6466571766   -1.7305729498
H        7.4784976541   -0.3430994196   -2.1296986500
H        6.9084230116   -4.3205005538   -0.5838801699
H        5.2004919854    0.2637017677   -1.3886072009
H        4.6427264387   -3.7237978923    0.1553057949
H        0.1440693845   -2.1779249735    1.5253013384
H        0.3812593371   -1.1811021889    0.0565594525
H        1.0536843603   -0.6404613608    1.6446517053
H        2.7970130161   -0.8892247649   -1.0213860746
H        3.4465785062   -0.3708052976    0.5507257004
