24   
torsion grid (-75,)
C        2.2588300608    1.9329113566   -2.3189399955
C        1.4779759928    2.0187365494   -0.0230919851
C        3.1662884543    2.9628236177   -2.0558932851
C        2.3914755406    3.0377928780    0.2516984815
C       -0.9920033656   -2.9204491115   -1.5848761983
C       -1.5981227538   -4.0311445572   -1.0644234738
C        2.1272166979   -2.1964322603    0.7017515547
C        0.0833772601   -2.4483893408   -0.7656870824
C        1.4164529539    1.4604065093   -1.3058915567
C        3.2249313539    3.5003866683   -0.7692555082
C        0.3021678042   -3.2910738456    0.3688631156
C        0.7863328874   -1.1656545006   -0.7077994423
N        1.4284832573   -3.2048421432    1.1962896992
N        1.4895857967   -1.0186995713    0.4069531652
S       -0.8618035204   -4.5756959403    0.4260635012
S        0.2290763075    0.1839644291   -1.7039139555
Br       4.4758234620    4.9027989759   -0.3954832640
H        2.2146959061    1.4942429109   -3.3115026854
H        0.8241678247    1.6545952591    0.7613116647
H        3.8208546879    3.3314021605   -2.8387492309
H        2.4491661884    3.4671254967    1.2464855125
H       -1.3268016884   -2.4341646126   -2.4952409156
H       -2.4483432921   -4.5707873182   -1.4612892637
H        3.1724522752   -2.1053153624    1.0176495164
24   
torsion grid (-60,)
C        2.3139549651    1.7703877600   -2.2158840544
C        1.2418566239    2.2288884681   -0.0899462306
C        3.2650670994    2.7606843626   -1.9563640751
C        2.1890973124    3.2182116063    0.1804120219
C       -1.1117045044   -2.8444215696   -1.4975034437
C       -1.6135115990   -4.0061596130   -0.9829841123
C        2.2967147258   -2.1577039735    0.4846894002
C        0.0605173829   -2.4019032651   -0.7978045383
C        1.3058167936    1.5020606539   -1.2838369814
C        3.1922072955    3.4720877396   -0.7573972971
C        0.4528130602   -3.3136996586    0.2228506125
C        0.7513242687   -1.1392658571   -0.7594294012
N        1.6347095148   -3.2303137990    0.9106173662
N        1.6578564678   -0.9895476178    0.2016491896
S       -0.6702271429   -4.6400284138    0.3486245697
S        0.0800464016    0.2478366424   -1.6376759241
Br       4.4976672425    4.8253585413   -0.3893633148
H        2.3625480379    1.2038440967   -3.1409850292
H        0.4620609556    2.0144637938    0.6338004412
H        4.0502085066    2.9708286444   -2.6751688801
H        2.1478200157    3.7794974409    1.1080159688
H       -1.5776438047   -2.3059712309   -2.3159130565
H       -2.4996012063   -4.5402925545   -1.3019184927
H        3.3382598405   -2.0651912583    0.8028383123
24   
torsion grid (-45,)
C        2.2935912767    1.7671066193   -2.2184945600
C        1.2743391222    2.2109619120   -0.0638243238
C        3.2500644785    2.7568852228   -1.9765151868
C        2.2278201503    3.1984955702    0.1897858680
C       -1.1328752676   -2.8195458850   -1.4978758276
C       -1.5994120020   -4.0230858008   -1.0539965430
C        2.2665492754   -2.1551880148    0.5955905136
C        0.0351373323   -2.3942276484   -0.7774111298
C        1.3086280427    1.4921700636   -1.2639709933
C        3.2066259854    3.4600964214   -0.7715394717
C        0.4533416600   -3.3512259012    0.1844260606
C        0.7278842882   -1.1471083205   -0.7144982983
N        1.6018232425   -3.2689021161    0.8991552006
N        1.6826459967   -0.9997842673    0.1979284069
S       -0.6357918161   -4.7166364682    0.2330262351
S        0.0720420887    0.2449933678   -1.6025741234
Br       4.5187805020    4.8136105695   -0.4281204135
H        2.3202775399    1.2058492490   -3.1476743455
H        0.5122125392    1.9919687178    0.6771493189
H        4.0168470937    2.9723369314   -2.7133355317
H        2.2092933019    3.7536129020    1.1218396303
H       -1.6140220117   -2.2458603380   -2.2825868133
H       -2.4722358216   -4.5592987302   -1.4049931684
H        3.2690419645   -2.0631371785    1.0145103103
24   
torsion grid (-30,)
C        2.3137942956    1.7153958671   -2.1770466262
C        1.2178497395    2.2801592680   -0.0901191289
C        3.2807377408    2.6960602795   -1.9417468102
C        2.1797296372    3.2618126624    0.1562173804
C       -1.1931207390   -2.7807541411   -1.4384546512
C       -1.5977504743   -4.0249461362   -1.0516399395
C        2.3032205805   -2.1398661336    0.5699006308
C        0.0085538771   -2.3715126953   -0.7634629808
C        1.2858077187    1.5040391148   -1.2521832989
C        3.2027089473    3.4571712937   -0.7740417720
C        0.5048777902   -3.3702892501    0.1106842976
C        0.7093156878   -1.1379547013   -0.7112300014
N        1.6625993197   -3.2881698581    0.7903882479
N        1.7523679043   -0.9998703902    0.1012350852
S       -0.5414255218   -4.7740823445    0.1269028844
S        0.0381790392    0.2646332634   -1.5765415764
Br       4.5290582483    4.7989785131   -0.4394198282
H        2.3658839953    1.1103185430   -3.0770998420
H        0.4217560456    2.1108963337    0.6280863509
H        4.0815281405    2.8612995862   -2.6550159598
H        2.1341855729    3.8620713112    1.0589173810
H       -1.7344258252   -2.1723385163   -2.1546955145
H       -2.4745569721   -4.5634032399   -1.3893985673
H        3.2898861801   -2.0422259338    1.0199418967
24   
torsion grid (-15,)
C        2.2943084022    1.7388539707   -2.2130836004
C        1.1360819871    2.4231378732   -0.1965494995
C        3.2523507494    2.7342159280   -2.0077088243
C        2.0880725072    3.4222819000    0.0181611258
C       -1.2016577213   -2.7274887380   -1.3424724706
C       -1.5272327727   -4.0053548567   -0.9940416777
C        2.3722073077   -2.0111522050    0.5449502112
C        0.0277820476   -2.3005507217   -0.7305541797
C        1.2401166489    1.5793679638   -1.3073749651
C        3.1383138330    3.5642549181   -0.8907540992
C        0.6135024675   -3.3104140113    0.0683977589
C        0.7180712610   -1.0649247228   -0.7195524223
N        1.7829158935   -3.1952954250    0.7114047075
N        1.8338869733   -0.9081446189   -0.0145250481
S       -0.3678180325   -4.7625866566    0.0771898440
S        0.0050642872    0.3174546142   -1.5883858215
Br       4.4531556492    4.9270932861   -0.5979329995
H        2.3738588898    1.0810918417   -3.0731994125
H        0.3194415475    2.2940857550    0.5069873696
H        4.0741935210    2.8588605211   -2.7050925089
H        2.0141452392    4.0760059321    0.8809753764
H       -1.8104738852   -2.1123820650   -1.9959541972
H       -2.3997708464   -4.5662844962   -1.3054090258
H        3.3469243862   -1.8807337505    1.0105556320
24   
torsion grid (0,)
C        2.2897152738    1.7502968358   -2.2299879600
C        1.1155131787    2.4422423418   -0.2250915166
C        3.2379112350    2.7558017752   -2.0285420467
C        2.0581304116    3.4509403568   -0.0137493250
C       -1.2230769544   -2.7077895266   -1.2740238144
C       -1.5009226564   -4.0109085677   -0.9828593964
C        2.3674591786   -1.9711027334    0.5866274570
C        0.0198233269   -2.2803625699   -0.6900630828
C        1.2323947826    1.5899419008   -1.3282550516
C        3.1113367015    3.5940030362   -0.9190837935
C        0.6548632749   -3.3090084560    0.0439384799
C        0.7173045475   -1.0500182558   -0.7087759738
N        1.8212148825   -3.1828870443    0.6877316725
N        1.8766204780   -0.9045332923   -0.0756150659
S       -0.2843241715   -4.7890772347    0.0068281793
S        0.0079957597    0.3169472436   -1.6050800686
Br       4.4132760237    4.9702592922   -0.6314365931
H        2.3798179123    1.0850627577   -3.0832198292
H        0.2955022877    2.3133716234    0.4746245457
H        4.0623053773    2.8813622645   -2.7227336835
H        1.9741166788    4.1115886797    0.8428639652
H       -1.8697019456   -2.0784421653   -1.8755203308
H       -2.3675174729   -4.5803891829   -1.2953678787
H        3.3175690993   -1.8197098678    1.0941176446
24   
torsion grid (15,)
C        2.3183739191    1.7238887779   -2.2102107384
C        1.1250902687    2.4301461663   -0.2218856021
C        3.2724629747    2.7218394114   -1.9991692812
C        2.0738905290    3.4309361866   -0.0007317537
C       -1.2726118606   -2.6855689088   -1.2218021283
C       -1.5222300534   -4.0083738638   -1.0022074903
C        2.3274128602   -1.9845455441    0.6211356602
C       -0.0136750303   -2.2760469470   -0.6600104691
C        1.2484505697    1.5743294224   -1.3216379347
C        3.1396054001    3.5633808458   -0.8930928768
C        0.6538608559   -3.3342754577    0.0001185571
C        0.7049038838   -1.0571737570   -0.6971675625
N        1.8188728963   -3.2164907176    0.6505885883
N        1.9030260716   -0.9490611740   -0.1319198179
S       -0.2629615520   -4.8246421607   -0.1004726443
S        0.0183396431    0.3094813432   -1.6110048184
Br       4.4496027651    4.9290833285   -0.5920213760
H        2.4139588745    1.0553890928   -3.0602088772
H        0.2948449883    2.3103889311    0.4674081747
H        4.1066739626    2.8385583994   -2.6830821649
H        1.9848203557    4.0942374712    0.8533202071
H       -1.9460213937   -2.0322755507   -1.7656583384
H       -2.3892279604   -4.5726146689   -1.3229268037
H        3.2516825747   -1.8242097797    1.1723962699
24   
torsion grid (30,)
C        2.4072447608    1.5766582342   -2.1142771399
C        1.1561776447    2.3999463809   -0.2082839430
C        3.3868303221    2.5479011590   -1.8982756101
C        2.1293928992    3.3769191014    0.0162191623
C       -1.3596841489   -2.6821282554   -1.1543858786
C       -1.6105993058   -4.0172277766   -1.0282325691
C        2.2762133882   -2.1230941838    0.6166103014
C       -0.0695210208   -2.3250415413   -0.6299042151
C        1.2953025603    1.4984095908   -1.2688018876
C        3.2363838462    3.4372455020   -0.8322298825
C        0.6146868062   -3.4347571746   -0.0745621216
C        0.6869213385   -1.1244522325   -0.6727650152
N        1.7940656919   -3.3651922718    0.5683147078
N        1.9278474249   -1.1032521957   -0.1965623252
S       -0.3168467923   -4.9065332395   -0.2527723253
S        0.0302915011    0.2692059781   -1.5632655033
Br       4.5798554471    4.7689787292   -0.5269393223
H        2.5149434974    0.8728449994   -2.9335998660
H        0.2935079609    2.3358486178    0.4479366935
H        4.2537123248    2.6085754905   -2.5479559751
H        2.0270367218    4.0763156955    0.8394379855
H       -2.0500247573   -1.9857073849   -1.6176471372
H       -2.4948505449   -4.5514154387   -1.3531180205
H        3.1854136485   -1.9793732968    1.1982295141
24   
torsion grid (45,)
C        2.4450058789    1.5122447558   -2.0385687179
C        1.1287342531    2.4559618056   -0.2343301049
C        3.4288314097    2.4813729360   -1.8348573342
C        2.1053543376    3.4335052213   -0.0252130978
C       -1.3908826412   -2.6694152909   -1.0627366077
C       -1.6205971257   -4.0144664880   -1.0272384467
C        2.2738009191   -2.1690566735    0.5804458364
C       -0.0755702545   -2.3336373033   -0.5921782211
C        1.2979834127    1.4954366975   -1.2371306250
C        3.2469893155    3.4324318700   -0.8283212353
C        0.6476362950   -3.4742424109   -0.1541791248
C        0.6917232365   -1.1307924532   -0.6520290302
N        1.8518844495   -3.4273155837    0.4656735259
N        1.9695348712   -1.1775123002   -0.2903564359
S       -0.2739928555   -4.9388086164   -0.3961631657
S        0.0231587617    0.2717279609   -1.5138334451
Br       4.5947511622    4.7644100776   -0.5435911208
H        2.5761609910    0.7627154273   -2.8124014156
H        0.2394947688    2.4389742849    0.3886177907
H        4.3230146459    2.4940848754   -2.4492671889
H        1.9789354836    4.1794892585    0.7524790674
H       -2.1132120987   -1.9504625929   -1.4338596088
H       -2.5147867598   -4.5368284614   -1.3436369396
H        3.1666456615   -2.0137041208    1.1867930095
24   
torsion grid (60,)
C        2.4115150700    1.5310844890   -2.0646757550
C        1.1435954059    2.4629472645   -0.2198993668
C        3.4060915622    2.4918975136   -1.8733712232
C        2.1317546029    3.4310560465   -0.0220989302
C       -1.3859100154   -2.6848997689   -1.0348309352
C       -1.5658614529   -4.0384477734   -1.0733542081
C        2.1994407847   -2.1113001297    0.6485882632
C       -0.0805375445   -2.3236620997   -0.5606429407
C        1.2836152926    1.5124907618   -1.2368174754
C        3.2545934199    3.4317252633   -0.8515519223
C        0.6887947857   -3.4615642210   -0.1854126505
C        0.6699903571   -1.0964813705   -0.6192662400
N        1.8885705158   -3.3926979283    0.4713812373
N        1.9614746053   -1.1786880421   -0.3138873711
S       -0.1779402267   -4.9398637146   -0.5024821274
S       -0.0001169348    0.2934164319   -1.4945624722
Br       4.6187878945    4.7497471998   -0.5816929046
H        2.5201393392    0.7889423671   -2.8490702299
H        0.2682763664    2.4454679490    0.4224803955
H        4.2858860082    2.5057966402   -2.5081671665
H        2.0286052031    4.1688418641    0.7667751568
H       -2.1367397160   -1.9752000430   -1.3655975221
H       -2.4405343274   -4.5780682187   -1.4138472480
H        3.0323268067   -1.8972966312    1.3230940227
24   
torsion grid (75,)
C        2.5250915830    1.3974299510   -1.8053750852
C        1.0744005436    2.6336680937   -0.3033908437
C        3.5129539716    2.3723639776   -1.6568228500
C        2.0527270585    3.6215290966   -0.1605740293
C       -1.4104113967   -2.6735034271   -0.8740672937
C       -1.6230470648   -4.0169104960   -1.0221930508
C        2.2724320095   -2.2829380313    0.4549977918
C       -0.0538683432   -2.3677676207   -0.5325154723
C        1.3087637392    1.5234426742   -1.1228950824
C        3.2648129049    3.4756064705   -0.8368875989
C        0.7363189843   -3.5484445947   -0.3688393816
C        0.7218651321   -1.1280404818   -0.5981503986
N        2.0186586181   -3.5545074818    0.1934985531
N        2.0282649192   -1.3378183129   -0.5081880102
S       -0.1909541496   -4.9730715188   -0.7138344584
S        0.0055041957    0.3157122667   -1.3238810273
Br       4.6176229625    4.8174942702   -0.6359357630
H        2.7061231304    0.5387241077   -2.4419466103
H        0.1331950677    2.7264018829    0.2305525678
H        4.4605184357    2.2745589697   -2.1762564617
H        1.8745791793    4.4833953377    0.4739529486
H       -2.1815492744   -1.9291301700   -1.0431272695
H       -2.5408635275   -4.5165263348   -1.3043057597
H        3.1030312288   -2.0648950642    1.1355653786
