29   
torsion grid (-165,)
C       -1.4702712493   -0.3081630467    0.5499580370
C       -0.6028728635    0.7900742814    0.5565122196
C       -1.0578356376   -1.5079416551   -0.0381951803
C        0.6627959278    0.6872800207   -0.0248958245
C        0.2134999695   -1.6088509654   -0.6101786841
C        1.0857512119   -0.5162189099   -0.6051772027
C        3.7158943979   -0.6900380235    0.7840676809
C        4.9038242681   -0.2033146417    1.6067105230
C        6.1908953089   -0.0255746901    0.7946167651
C        5.8915123546    0.7882629766   -0.4639185692
C        4.7876406068    0.1169306849   -1.2740515245
C        2.4332104955   -0.5976718400   -1.2895837753
N        3.5668833606   -0.1212463103   -0.4789503030
O        2.9010514373   -1.4789244503    1.2519810459
H       -2.4559251309   -0.2303805215    1.0018481648
H       -0.9150080308    1.7266222695    1.0124495476
H       -1.7219030936   -2.3687756504   -0.0420942691
H        1.3374151032    1.5405547460   -0.0156552104
H        0.5389463514   -2.5528906423   -1.0409470634
H        5.0300404255   -0.9099577328    2.4290699484
H        4.6081135073    0.7585186664    2.0456752011
H        6.5844726269   -1.0094329253    0.5082242964
H        6.9609546000    0.4592043835    1.4042293724
H        6.7830528736    0.8855734480   -1.0931154642
H        5.5724720703    1.8003674584   -0.1870762834
H        5.1532482634   -0.8366074795   -1.6887632914
H        4.5122979033    0.7495355287   -2.1241833500
H        2.4189792639    0.0256569295   -2.1902809545
H        2.6116133421   -1.6327528364   -1.6148141788
29   
torsion grid (-150,)
C       -1.4506604604   -0.1838271088    0.5125121082
C       -0.5419079763    0.8776144111    0.4355261904
C       -1.0816115274   -1.4435855040    0.0301721976
C        0.7215553843    0.6781120678   -0.1260759307
C        0.1868572728   -1.6399045024   -0.5232140452
C        1.0980541587   -0.5828354308   -0.6073666152
C        3.7778183394   -0.8594002056    0.7583619083
C        4.9559040053   -0.3605796581    1.5867749199
C        6.1896416722    0.0148139826    0.7604480571
C        5.7707888767    0.9206380159   -0.3970265480
C        4.7235279831    0.2236899117   -1.2591631819
C        2.4489793890   -0.7719029128   -1.2659301995
N        3.5727263078   -0.2523482603   -0.4715773986
O        3.0050560798   -1.7072458003    1.1988831082
H       -2.4342966317   -0.0316548675    0.9496628356
H       -0.8193750247    1.8595702489    0.8113199262
H       -1.7770236259   -2.2766563122    0.0964044036
H        1.4297984638    1.5020551195   -0.1794451458
H        0.4800636019   -2.6283723473   -0.8686633362
H        5.1730216896   -1.1355634248    2.3245168084
H        4.5977926414    0.5178747212    2.1393332279
H        6.6584511883   -0.8941503523    0.3616738908
H        6.9365258432    0.5051880680    1.3939649961
H        6.6284463377    1.1828680256   -1.0260568475
H        5.3532125466    1.8560098600   -0.0047570491
H        5.1841302305   -0.6213345917   -1.7959058013
H        4.3452413728    0.9164914045   -2.0177893084
H        2.4656545249   -0.2317578586   -2.2181795157
H        2.6015653993   -1.8359593672   -1.4883579442
29   
torsion grid (-135,)
C       -1.3950343574   -0.1174880514    0.4642986349
C       -0.5063398434    0.9323940792    0.2049736282
C       -1.0165985827   -1.4313613517    0.1709774267
C        0.7469004167    0.6650086241   -0.3512339176
C        0.2418331122   -1.6934794880   -0.3790652469
C        1.1311314863   -0.6494539045   -0.6501340983
C        3.8578666321   -1.0816475326    0.6947150875
C        5.0302963568   -0.6018130433    1.5414429594
C        6.1941474733   -0.0187812083    0.7353312800
C        5.6540172942    0.9913016048   -0.2765789673
C        4.6564236031    0.3168502315   -1.2126147118
C        2.4813235150   -0.9157351097   -1.2853619307
N        3.6059739299   -0.4098692979   -0.4839984155
O        3.1255157999   -1.9920294645    1.0824420446
H       -2.3710507791    0.0870234569    0.8972346722
H       -0.7918314726    1.9563083094    0.4340083091
H       -1.6957608662   -2.2533407008    0.3831401178
H        1.4384424889    1.4822750839   -0.5467309292
H        0.5480634186   -2.7182145408   -0.5726706669
H        5.3377288955   -1.4471505338    2.1606717486
H        4.6289778217    0.1607454890    2.2214101691
H        6.7181839339   -0.8237855156    0.2038564663
H        6.9248773087    0.4475517161    1.4048242840
H        6.4614298236    1.4264085281   -0.8754001855
H        5.1572768313    1.8144459905    0.2517160629
H        5.1872084067   -0.3732092819   -1.8877251595
H        4.1701161017    1.0691854569   -1.8423130710
H        2.5338988108   -0.4149509867   -2.2568033666
H        2.6007362368   -1.9911974550   -1.4576182623
29   
torsion grid (-120,)
C       -1.3695609307    0.0492982178    0.4743325492
C       -0.6840571568    1.0096244769   -0.2775049957
C       -0.8103784882   -1.2210548819    0.6490199368
C        0.5518825910    0.6936088902   -0.8485953012
C        0.4284294848   -1.5324006068    0.0801326330
C        1.1218996776   -0.5765086410   -0.6741749047
C        3.9561007188   -1.3124083473    0.5841151983
C        5.1486782572   -0.9220855537    1.4491633599
C        6.2044295505   -0.0720932458    0.7384532668
C        5.5145639700    1.0712162750   -0.0044782733
C        4.5286986080    0.5131209424   -1.0252384220
C        2.4721802959   -0.8877974740   -1.2907010589
N        3.6027783292   -0.4675894768   -0.4406926163
O        3.3001143810   -2.3249150196    0.8430483017
H       -2.3328355959    0.2887942347    0.9179617286
H       -1.1143836202    1.9973118278   -0.4240696890
H       -1.3379870803   -1.9706943781    1.2335964930
H        1.0767394563    1.4413270815   -1.4409813171
H        0.8785168699   -2.5067925655    0.2385125411
H        5.5631378182   -1.8513615515    1.8461715719
H        4.7384756147   -0.3702168800    2.3046303712
H        6.7607771060   -0.6902798416    0.0219263519
H        6.9335803211    0.3105819316    1.4606381761
H        6.2404139448    1.7043489043   -0.5261219269
H        4.9777160126    1.7070071837    0.7100631687
H        5.0774802787    0.0486565481   -1.8596115936
H        3.9320002424    1.3283658184   -1.4472880617
H        2.5742130760   -0.3651458807   -2.2449987989
H        2.5567774648   -1.9615683414   -1.4806899177
29   
torsion grid (-105,)
C       -1.3153012691    0.1589224841    0.4512976028
C       -0.7367350813    0.9522512848   -0.5436280563
C       -0.6628841945   -1.0053566627    0.8747201875
C        0.4888238449    0.5802202847   -1.1068666738
C        0.5613446182   -1.3752264554    0.3121593136
C        1.1508882487   -0.5811933252   -0.6843454473
C        4.0669850990   -1.4935986825    0.5006240733
C        5.2822089349   -1.1319596592    1.3467984153
C        6.2103457147   -0.0821196352    0.7324650974
C        5.3728948855    1.0867455624    0.2154890355
C        4.3977285236    0.5963066580   -0.8490518701
C        2.4935174566   -0.9553309162   -1.2809096347
N        3.6264906701   -0.5760158447   -0.4177569542
O        3.4774021401   -2.5634200146    0.6869899046
H       -2.2688030631    0.4421316503    0.8901906091
H       -1.2395784445    1.8541579567   -0.8839851438
H       -1.1111928139   -1.6281664575    1.6450093797
H        0.9301094201    1.1964741877   -1.8884088723
H        1.0778508184   -2.2699221671    0.6453642325
H        5.8004474602   -2.0696249573    1.5608273821
H        4.8878469687   -0.7697455579    2.3046988414
H        6.7754040298   -0.5224214806   -0.0993373895
H        6.9447387476    0.2547574983    1.4719126353
H        6.0028297075    1.8704419302   -0.2188049658
H        4.8134618353    1.5371943173    1.0443913297
H        4.9446375209    0.3509416372   -1.7726964645
H        3.6862934101    1.3915917051   -1.0967822125
H        2.6309434342   -0.4564373476   -2.2441786906
H        2.5438419660   -2.0343991915   -1.4436422318
29   
torsion grid (-90,)
C       -1.2406544787    0.2968238427    0.4136720236
C       -0.7305787553    0.9275294960   -0.7239312788
C       -0.5375593515   -0.7694966488    0.9895589555
C        0.4790511430    0.4932630225   -1.2795838765
C        0.6681901592   -1.2017459940    0.4339737909
C        1.1884819767   -0.5705978162   -0.7080833315
C        4.1559707238   -1.5933562704    0.4246303946
C        5.3742303224   -1.2162443700    1.2596720017
C        6.1720667392   -0.0165311680    0.7448559988
C        5.2042311962    1.1113243145    0.3894239755
C        4.2562306861    0.6517047703   -0.7127761809
C        2.5128891209   -1.0232981408   -1.2890621865
N        3.6528365989   -0.6559803370   -0.4375655706
O        3.6291683121   -2.7029621613    0.5642219876
H       -2.1802579836    0.6296182418    0.8475808844
H       -1.2717974466    1.7532411479   -1.1792672022
H       -0.9341665319   -1.2667220709    1.8714180028
H        0.8699063788    0.9837202046   -2.1694162326
H        1.2183765573   -2.0279712441    0.8756048924
H        5.9856519591   -2.1187366348    1.3377698054
H        4.9967384358   -1.0127024097    2.2695248026
H        6.7453686775   -0.3008144898   -0.1470059584
H        6.8973929080    0.3080694353    1.4985717841
H        5.7360324434    2.0050147959    0.0461191592
H        4.6255261364    1.3954120153    1.2768348167
H        4.7936712109    0.6034310978   -1.6723440602
H        3.4428290667    1.3759906984   -0.8344751123
H        2.6697246306   -0.5732819618   -2.2748145109
H        2.5262697900   -2.1090232749   -1.3994801551
29   
torsion grid (-75,)
C       -1.1640148545    0.4259159513    0.3701094094
C       -0.7164901106    0.8910428755   -0.8689423978
C       -0.4171532582   -0.5382572462    1.0602716785
C        0.4749010496    0.3951821009   -1.4131716841
C        0.7689169246   -1.0320311470    0.5145673531
C        1.2258719292   -0.5681047142   -0.7297908051
C        4.2582066074   -1.6868437063    0.3262696334
C        5.4765224628   -1.2896777677    1.1520383783
C        6.1356965165    0.0318458316    0.7531921750
C        5.0485110121    1.0868352420    0.5545809450
C        4.1177540431    0.6643293510   -0.5768746306
C        2.5274317256   -1.0993377574   -1.2954422432
N        3.6832141808   -0.7320677859   -0.4710057391
O        3.8077430937   -2.8349165311    0.4050155311
H       -2.0881213783    0.8087036582    0.7958276336
H       -1.2904240505    1.6388073963   -1.4105988562
H       -0.7649504874   -0.9074259109    2.0219692051
H        0.8206315189    0.7601622062   -2.3786440804
H        1.3486174990   -1.7847356429    1.0429005581
H        6.1707534431   -2.1325820009    1.1005523885
H        5.1321728761   -1.2413484417    2.1923867835
H        6.6995004012   -0.0932206195   -0.1801426913
H        6.8537031537    0.3429933690    1.5194923024
H        5.4750323633    2.0657038706    0.3115217768
H        4.4731451875    1.2025270860    1.4814100380
H        4.6199474549    0.8068675562   -1.5459389707
H        3.2216622878    1.2948161049   -0.5833137700
H        2.6874181099   -0.7064060303   -2.3064328969
H        2.5067775686   -2.1886201900   -1.3477910671
29   
torsion grid (-60,)
C       -1.1595515093    0.5765736504    0.2938049608
C       -0.7659508122    0.8103922733   -1.0263208540
C       -0.3678075362   -0.2322883429    1.1196241468
C        0.4157021908    0.2410834904   -1.5166096995
C        0.8070451216   -0.8012259344    0.6252570913
C        1.2107446948   -0.5694132001   -0.6989166540
C        4.4223981513   -1.8035222647    0.1507935866
C        5.6472831121   -1.3876512188    0.9588071130
C        6.1275753132    0.0477432411    0.7379843205
C        4.9212013364    0.9842559383    0.7622279553
C        3.9604541962    0.6211013674   -0.3637911182
C        2.4895978252   -1.1958486738   -1.2151018870
N        3.6619960109   -0.8142802547   -0.4226571722
O        4.1282533158   -2.9990582901    0.0571439314
H       -2.0749260429    1.0193672802    0.6779456151
H       -1.3736146874    1.4382418355   -1.6731571887
H       -0.6713586183   -0.4215980875    2.1463048466
H        0.7219719949    0.4317433724   -2.5433523924
H        1.4208582794   -1.4321705906    1.2639452029
H        6.4246620459   -2.1238330876    0.7389270179
H        5.3757591313   -1.5362596580    2.0113104965
H        6.6354673181    0.1313488536   -0.2314079031
H        6.8591349832    0.3234753344    1.5051160710
H        5.2209954561    2.0307790637    0.6428793063
H        4.4061672120    0.9004401738    1.7273905607
H        4.3841683681    0.9369495859   -1.3299376652
H        3.0145249863    1.1568997229   -0.2402938998
H        2.6507708311   -0.8978429773   -2.2597773531
H        2.4325027104   -2.2847345304   -1.1813094982
29   
torsion grid (-45,)
C       -1.1941165498    0.7448935175    0.1540518471
C       -0.7243274473    0.8790868255   -1.1550964193
C       -0.4968808960   -0.0643213206    1.0606383295
C        0.4397868978    0.2114040785   -1.5541496949
C        0.6600553719   -0.7322386678    0.6559541056
C        1.1424843377   -0.5991214204   -0.6557055035
C        4.5254307111   -1.8434313918   -0.0123899700
C        5.7818464208   -1.3992485078    0.7299298835
C        6.1097273089    0.0914842621    0.6331729368
C        4.8359335360    0.8966479523    0.8798495128
C        3.7906358528    0.5582057930   -0.1765057622
C        2.3979593238   -1.3297298890   -1.0751707581
N        3.5950458013   -0.8877512821   -0.3428791197
O        4.3534279612   -3.0402752892   -0.2619717871
H       -2.0964815898    1.2638323611    0.4669373559
H       -1.2599246732    1.5044184038   -1.8649282635
H       -0.8599864916   -0.1769901234    2.0791843372
H        0.8057841928    0.3244462952   -2.5725398070
H        1.2020567533   -1.3609299710    1.3592337199
H        6.5957632419   -2.0281066341    0.3610263525
H        5.6265129700   -1.6822226769    1.7786484963
H        6.5030375565    0.3269743387   -0.3641491860
H        6.8916639402    0.3545459478    1.3537182593
H        5.0283147733    1.9743139926    0.8468173134
H        4.4391759582    0.6665837147    1.8767087801
H        4.0867079517    0.9952309890   -1.1434236167
H        2.8304323469    1.0049362049    0.0906094633
H        2.5586973514   -1.1907752402   -2.1533271181
H        2.3077830555   -2.4026655772   -0.9006854738
29   
torsion grid (-30,)
C       -1.1743814202    0.8456885890    0.0082876930
C       -0.5660627940    0.9372863914   -1.2470084682
C       -0.6337763522   -0.0062803598    0.9793825337
C        0.5801712564    0.1850089997   -1.5269517431
C        0.5079492512   -0.7576303843    0.6925812174
C        1.1310396317   -0.6667017583   -0.5619127006
C        4.6378405716   -1.8249158781   -0.0926018473
C        5.9336615787   -1.3316692230    0.5432408150
C        6.1271979305    0.1853431857    0.5335711439
C        4.8317115115    0.8535552263    0.9883898072
C        3.6941794629    0.4997645625    0.0367514843
C        2.3711501162   -1.4770021823   -0.8529217906
N        3.5890395871   -0.9459336021   -0.2050485067
O        4.5360360522   -3.0023162278   -0.4509975646
H       -2.0650885751    1.4286813548    0.2278793019
H       -0.9827528369    1.5924632098   -2.0078063379
H       -1.1060030990   -0.0880301584    1.9551791722
H        1.0523008144    0.2618794457   -2.5040979634
H        0.9271249189   -1.4199490048    1.4471905766
H        6.7462340410   -1.8574563871    0.0362506181
H        5.9233709076   -1.7021530994    1.5761303986
H        6.3768206477    0.5263876162   -0.4795131359
H        6.9666829486    0.4651157904    1.1792028014
H        4.9315172017    1.9438642627    1.0184632392
H        4.5791504797    0.5207264572    2.0030151093
H        3.8401028411    1.0215779392   -0.9221448057
H        2.7454819153    0.8529648868    0.4443310166
H        2.5331120407   -1.5286395221   -1.9375283076
H        2.2541891148   -2.5059801038   -0.5095227967
29   
torsion grid (-15,)
C       -1.1849305256    0.9071006363   -0.1139875335
C       -0.4532683540    0.9696509542   -1.3044903904
C       -0.7849746959    0.0290458121    0.8997714790
C        0.6752916433    0.1620956476   -1.4757365227
C        0.3433891989   -0.7761615458    0.7223838694
C        1.0895835662   -0.7144228904   -0.4639260783
C        4.6634080755   -1.7750283633   -0.1549225817
C        5.9920262690   -1.2315205519    0.3602494304
C        6.0792593119    0.2927791720    0.4483445823
C        4.8031203579    0.8255957303    1.0961035057
C        3.5887369824    0.4588647046    0.2495128071
C        2.3164623185   -1.5747310053   -0.6399351971
N        3.5543410511   -0.9710193536   -0.0905245039
O        4.5902781080   -2.9326526780   -0.5802407321
H       -2.0639154633    1.5322288358    0.0203350049
H       -0.7631667791    1.6430231183   -2.0996240557
H       -1.3541183173   -0.0311354112    1.8239965120
H        1.2408753043    0.2121697186   -2.4038152729
H        0.6522939086   -1.4589443910    1.5111412457
H        6.7688263518   -1.6561816547   -0.2802846683
H        6.1356937542   -1.6746463410    1.3537461258
H        6.1843911230    0.7225589635   -0.5562650356
H        6.9673108544    0.5907476567    1.0161677002
H        4.8324089777    1.9151591031    1.2042245013
H        4.6929416197    0.4003178398    2.1016330135
H        3.5893364343    1.0588010209   -0.6730264155
H        2.6724387064    0.7120357614    0.7857311812
H        2.4747819534   -1.7888572296   -1.7030771592
H        2.1807351215   -2.5428752650   -0.1526732717
29   
torsion grid (0,)
C       -1.1444512206    0.9705809038   -0.2453040914
C       -0.3127741593    0.9933131397   -1.3707259778
C       -0.8661891894    0.0872310584    0.8027584105
C        0.7922026957    0.1410556570   -1.4417024904
C        0.2423725132   -0.7618430106    0.7264125855
C        1.0870557290   -0.7412060625   -0.3920812653
C        4.6823926519   -1.7532311465   -0.2382878207
C        6.0345618719   -1.1668872813    0.1536070419
C        6.0551292121    0.3507218117    0.3402697945
C        4.8380346924    0.7630150164    1.1653335324
C        3.5541944531    0.3922319961    0.4302829015
C        2.2909540507   -1.6479671575   -0.4669669475
N        3.5536531101   -1.0057873600   -0.0258263086
O        4.6138192442   -2.8957755987   -0.7042545862
H       -2.0064514750    1.6303521922   -0.1895794292
H       -0.5287661937    1.6700630101   -2.1935812423
H       -1.5125374586    0.0571585208    1.6762715341
H        1.4335105679    0.1576370862   -2.3205502707
H        0.4556566736   -1.4481090590    1.5432536609
H        6.7473868958   -1.5028981623   -0.6036191674
H        6.3214998535   -1.6654638252    1.0878304286
H        6.0199344295    0.8515391723   -0.6359081903
H        6.9870941815    0.6623516253    0.8241635281
H        4.8274777446    1.8417409934    1.3548530375
H        4.8648284480    0.2602971106    2.1403849782
H        3.4167240511    1.0635121851   -0.4291615168
H        2.6933729781    0.5456237423    1.0849748031
H        2.4352097111   -2.0040086236   -1.4911219532
H        2.1321211934   -2.5413393811    0.1446274021
29   
torsion grid (15,)
C       -1.1084688213    1.0213414393   -0.3890552765
C       -0.1952618875    0.9803186747   -1.4497099364
C       -0.9368782264    0.1668289102    0.7039677246
C        0.8818541101    0.0923678134   -1.4111142166
C        0.1466807631   -0.7177221357    0.7384112078
C        1.0693909417   -0.7628830026   -0.3143937909
C        4.6582886246   -1.7291327550   -0.3405949527
C        6.0198964664   -1.0994491439   -0.0646502307
C        5.9974648084    0.3960739920    0.2536650808
C        4.8680661817    0.6728103472    1.2437255428
C        3.5269786363    0.3008562472    0.6205049423
C        2.2438118756   -1.7111760577   -0.2797828601
N        3.5301101906   -1.0540233974    0.0484958951
O        4.5917651119   -2.8426697922   -0.8720642100
H       -1.9496173345    1.7091336823   -0.4185297963
H       -0.3274713526    1.6353396610   -2.3071926896
H       -1.6454358753    0.1872540446    1.5281165362
H        1.5867799947    0.0579117252   -2.2393939391
H        0.2765507304   -1.3804961767    1.5914044955
H        6.6467247642   -1.3315637580   -0.9294462711
H        6.4441893570   -1.6581731920    0.7787256581
H        5.8272564720    0.9751798189   -0.6631754431
H        6.9655702530    0.7140085499    0.6555010347
H        4.8346937479    1.7291765232    1.5311878966
H        5.0272595622    0.0893813330    2.1593772065
H        3.2677016048    1.0320868006   -0.1566604632
H        2.7363757386    0.3556511080    1.3738486896
H        2.3701512413   -2.2050306474   -1.2454656626
H        2.0593568027   -2.5072331637    0.4509728097
29   
torsion grid (30,)
C       -1.0397189965    1.0439259554   -0.5522581640
C       -0.0542518403    0.9302375392   -1.5412863071
C       -0.9680358789    0.2408224102    0.5891401010
C        0.9928128132    0.0205746587   -1.3841430861
C        0.0872834681   -0.6657985957    0.7434686919
C        1.0780757134   -0.7852831427   -0.2377547964
C        4.6223902534   -1.6502451331   -0.4697964051
C        5.9759102670   -0.9728287216   -0.2796220008
C        5.9248780202    0.4794859997    0.1967052448
C        4.9153123826    0.5922530389    1.3371902241
C        3.5293702792    0.1970327791    0.8401487545
C        2.2242149353   -1.7583491791   -0.0793159273
N        3.5257125904   -1.0997185057    0.1471211338
O        4.5483724694   -2.6925907906   -1.1282273088
H       -1.8574402578    1.7496104790   -0.6739762833
H       -0.1074690863    1.5467513424   -2.4351451144
H       -1.7310412008    0.3193513558    1.3594687540
H        1.7556483539   -0.0700426841   -2.1549259477
H        0.1398273573   -1.2867038818    1.6354494706
H        6.5096127157   -1.0814317394   -1.2270651444
H        6.5184797466   -1.5881600095    0.4489522841
H        5.6174101959    1.1365913462   -0.6270501924
H        6.9202682969    0.8099816423    0.5125615280
H        4.8651030381    1.6137522788    1.7292062947
H        5.2160291333   -0.0620211725    2.1651091535
H        3.1405596360    0.9759232123    0.1717727007
H        2.8315572719    0.1329242247    1.6813652140
H        2.3380596016   -2.3830048235   -0.9662264263
H        2.0168109814   -2.4315291989    0.7625479223
29   
torsion grid (45,)
C       -0.9422694891    1.0639105814   -0.7257946017
C        0.0740335481    0.8272554735   -1.6607827553
C       -0.9432791381    0.3658870780    0.4846994959
C        1.0791070745   -0.1004864925   -1.3825819075
C        0.0699785214   -0.5600726932    0.7609334344
C        1.0886581623   -0.8025477503   -0.1667955403
C        4.5151424796   -1.5162607336   -0.6033986487
C        5.8646481178   -0.8164130187   -0.4763020092
C        5.8313433764    0.5587127607    0.1934416608
C        4.9778179374    0.4801598275    1.4579771238
C        3.5567756578    0.0684570787    1.0917014710
C        2.1999885834   -1.7895379367    0.1225475253
N        3.5155142872   -1.1475552736    0.2674354148
O        4.3713530931   -2.4232105226   -1.4283300394
H       -1.7267301052    1.7846025125   -0.9420447740
H        0.0768664190    1.3624918852   -2.6071035405
H       -1.7293798384    0.5422251387    1.2146357930
H        1.8662897147   -0.2884095229   -2.1097052626
H        0.0670566482   -1.0978733495    1.7069870274
H        6.2877916621   -0.7775530808   -1.4828051184
H        6.5026757898   -1.4984446016    0.0999743019
H        5.3978850094    1.2990017590   -0.4913568998
H        6.8491349680    0.8936363889    0.4207904890
H        4.9404934548    1.4445641484    1.9758146598
H        5.4098680210   -0.2497067664    2.1538952957
H        3.0549436740    0.8897247639    0.5634849707
H        2.9714204227   -0.1248429320    1.9977382705
H        2.2970452826   -2.5211772531   -0.6798381328
H        1.9737482175   -2.3311382706    1.0499669789
29   
torsion grid (60,)
C       -0.8956716891    1.0509423583   -0.8845687733
C        0.1075788535    0.6876902336   -1.7926032592
C       -0.9078888034    0.4869794983    0.3938990049
C        1.0905482139   -0.2321070944   -1.4226432365
C        0.0814742666   -0.4326345915    0.7626781898
C        1.0868591450   -0.8005171703   -0.1384413310
C        4.3843997826   -1.3406237481   -0.6998884086
C        5.7371751222   -0.6413451527   -0.6213270879
C        5.7615333345    0.6343539492    0.2236285483
C        5.0629584125    0.3697749853    1.5565181280
C        3.6175144276   -0.0450164915    1.3071774041
C        2.1799538390   -1.7743903131    0.2550275904
N        3.5017351582   -1.1405881370    0.3358654631
O        4.1367021169   -2.1028445436   -1.6389066329
H       -1.6618914027    1.7657064886   -1.1738581010
H        0.1176593672    1.1181986651   -2.7909361104
H       -1.6835775452    0.7627543596    1.1039682062
H        1.8662688545   -0.5215580328   -2.1272660613
H        0.0706164286   -0.8663379199    1.7608904627
H        6.0531301076   -0.4618748392   -1.6514716230
H        6.4359792520   -1.3787741599   -0.2060526840
H        5.2420563916    1.4435263896   -0.3055175417
H        6.7941304259    0.9658901394    0.3771610768
H        5.0676159499    1.2608422030    2.1933445148
H        5.5891838518   -0.4246529270    2.1001465071
H        3.0351549917    0.8179318949    0.9557978569
H        3.1511245478   -0.3806423696    2.2406860205
H        2.2605152537   -2.5809250909   -0.4739942780
H        1.9531717226   -2.2123021085    1.2341955322
29   
torsion grid (75,)
C       -0.8701141973    1.0056171343   -1.0414467972
C        0.0437359779    0.4459538655   -1.9434261887
C       -0.8082103169    0.6578810780    0.3107569887
C        1.0138237785   -0.4544793549   -1.4974236442
C        0.1656737270   -0.2435829055    0.7560201245
C        1.0836157543   -0.8070557845   -0.1395345000
C        4.3088156659   -1.2453455764   -0.6960941709
C        5.6639988941   -0.5485031754   -0.6499679525
C        5.7564930221    0.6203841682    0.3328857297
C        5.1763502566    0.1884949069    1.6785514201
C        3.7105185607   -0.1969914239    1.5108367518
C        2.1621437926   -1.7560317057    0.3464089962
N        3.4894224798   -1.1283591851    0.3986682357
O        3.9962869019   -1.9255879054   -1.6788868549
H       -1.6258789726    1.7041791443   -1.3917088332
H       -0.0043065129    0.7089224055   -2.9973276583
H       -1.5157567770    1.0852157163    1.0170295340
H        1.7250184498   -0.8911761911   -2.1929542043
H        0.2088707908   -0.5136608461    1.8096844381
H        5.8896812162   -0.2459757284   -1.6752285258
H        6.3972535716   -1.3211591656   -0.3862759426
H        5.1896756425    1.4782564857   -0.0509102979
H        6.7968521325    0.9465114795    0.4371562467
H        5.2452932681    0.9902922628    2.4213657738
H        5.7425274798   -0.6671989785    2.0669338266
H        3.1021192032    0.7053512901    1.3544107036
H        3.3385397534   -0.6753738033    2.4244448866
H        2.2418359649   -2.6156383275   -0.3199444417
H        1.9232601712   -2.1164790114    1.3524514884
29   
torsion grid (90,)
C       -0.9081475287    0.9617302933   -1.1726700505
C       -0.0910777375    0.2414853634   -2.0522136777
C       -0.7440678158    0.8070875193    0.2071594846
C        0.8867859253   -0.6265613649   -1.5591756560
C        0.2346503095   -0.0630038123    0.6992380551
C        1.0598364620   -0.7849324781   -0.1750437355
C        4.2379178949   -1.0833177429   -0.7146257240
C        5.5841059255   -0.3692242812   -0.6852178435
C        5.7421481550    0.6616819568    0.4334508950
C        5.2741003207    0.0391034336    1.7475204036
C        3.7971860718   -0.3314080077    1.6509909819
C        2.1429662570   -1.6952709804    0.3715035109
N        3.4638780693   -1.0485919437    0.4154858843
O        3.8814091124   -1.6903021757   -1.7302736452
H       -1.6692520619    1.6345275010   -1.5600075543
H       -0.2178164574    0.3552250409   -3.1260667263
H       -1.3787786156    1.3573560404    0.8974454858
H        1.5324233720   -1.1763612997   -2.2368888089
H        0.3524327686   -0.1874990431    1.7743493601
H        5.7196727500    0.0710117610   -1.6762387357
H        6.3465973104   -1.1521799438   -0.5889749713
H        5.1381015077    1.5511965474    0.2137052162
H        6.7841342049    0.9918962889    0.5016020404
H        5.4073335267    0.7263465547    2.5896852122
H        5.8685364802   -0.8579879004    1.9607876569
H        3.1823295618    0.5782480412    1.7157265742
H        3.5139853196   -0.9679985243    2.4976048532
H        2.2371294628   -2.5857704544   -0.2525550998
H        1.8955091023   -2.0099668574    1.3893742304
29   
torsion grid (105,)
C       -0.9379585734    0.8766250667   -1.2596875595
C       -0.2084739502   -0.0023385770   -2.0678848586
C       -0.6770222591    0.9318580492    0.1134166889
C        0.7798854875   -0.8199234057   -1.5118536664
C        0.3093249029    0.1105678846    0.6678159885
C        1.0494221275   -0.7691769675   -0.1366121242
C        4.1822452825   -0.9377209940   -0.6344032156
C        5.5178916268   -0.2036237553   -0.6246687997
C        5.7586483556    0.6778631058    0.6014130329
C        5.3865964318   -0.1169694736    1.8516079205
C        3.9007223184   -0.4639491769    1.8249850151
C        2.1338312878   -1.6299265327    0.4832649917
N        3.4478689928   -0.9649874689    0.5214980293
O        3.7851800199   -1.4872855560   -1.6670858962
H       -1.7061669138    1.5106430571   -1.6954771531
H       -0.4080470127   -0.0499218743   -3.1355906302
H       -1.2446220801    1.6059257691    0.7503122974
H        1.3654477050   -1.4835944233   -2.1393404564
H        0.5002517337    0.1483549740    1.7390480119
H        5.5610223212    0.3640415143   -1.5580197372
H        6.2948112084   -0.9741586233   -0.6985262853
H        5.1409524605    1.5830172907    0.5438490354
H        6.8031926915    1.0048779319    0.6368816488
H        5.5977534586    0.4439429021    2.7680851166
H        5.9819745585   -1.0378315272    1.8887725705
H        3.3107788840    0.4255087441    2.0902618472
H        3.6823188500   -1.2287220882    2.5799860501
H        2.2430102303   -2.5582349193   -0.0830686246
H        1.8681059567   -1.8845123394    1.5122825539
29   
torsion grid (120,)
C       -0.9481811182    0.8106781401   -1.4026777190
C       -0.3538548583   -0.2440940960   -2.1031280873
C       -0.5371135938    1.0912205812   -0.0947932072
C        0.6478305793   -1.0137319821   -1.5036617756
C        0.4590658872    0.3147146733    0.5030635432
C        1.0614804621   -0.7432644719   -0.1940612056
C        4.1288163286   -0.7368111664   -0.6454079901
C        5.4462957441    0.0283595751   -0.6237750829
C        5.7664845546    0.7134300957    0.7054463198
C        5.4954278743   -0.2774282332    1.8364649908
C        4.0127361903   -0.6411934852    1.8690916445
C        2.1431705300   -1.5668515090    0.4780310375
N        3.4461307621   -0.8818794207    0.5350801721
O        3.6868290168   -1.1898556837   -1.7047528147
H       -1.7250843112    1.4097483679   -1.8712733469
H       -0.6640918669   -0.4623558719   -3.1219712492
H       -0.9967536541    1.9065954812    0.4584756747
H        1.1348824161   -1.8091620661   -2.0586552037
H        0.7693214488    0.5307992819    1.5241082729
H        5.4027670555    0.7369433390   -1.4557222415
H        6.2297210991   -0.6949226731   -0.8792725032
H        5.1378185196    1.6031876474    0.8362144860
H        6.8077901037    1.0521277894    0.7185751164
H        5.7749311330    0.1323165017    2.8127232728
H        6.0974337709   -1.1811189574    1.6792569297
H        3.4473917226    0.1681511230    2.3531043055
H        3.8630851132   -1.5422804829    2.4766485519
H        2.2680382486   -2.5165930491   -0.0514556256
H        1.8526428589   -1.7880931559    1.5080007853
29   
torsion grid (135,)
C       -0.9665349260    0.7515143605   -1.5085618296
C       -0.5972992992   -0.5070264773   -1.9938656829
C       -0.3124957804    1.2796535162   -0.3895764367
C        0.4189393742   -1.2324099718   -1.3651901333
C        0.6966999836    0.5466894576    0.2395694562
C        1.0713417323   -0.7149856598   -0.2423172247
C        4.0663371374   -0.4937131142   -0.5984417135
C        5.3624015607    0.3033819200   -0.5144875002
C        5.7434935563    0.7485506030    0.8981608276
C        5.5627645737   -0.4419841950    1.8388404884
C        4.0910437599   -0.8487598277    1.8922997854
C        2.1431181044   -1.5086710677    0.4774704431
N        3.4289613958   -0.8039541446    0.5800298603
O        3.5905568810   -0.8084500130   -1.6901777186
H       -1.7524955584    1.3188162547   -2.0007749275
H       -1.0912776530   -0.9179593685   -2.8708007469
H       -0.5916834696    2.2586171797   -0.0074447349
H        0.7284496055   -2.1939439615   -1.7663582762
H        1.2057092614    0.9609656904    1.1078550287
H        5.2464883301    1.1487159127   -1.1992319524
H        6.1480752838   -0.3303140132   -0.9418855340
H        5.1016598619    1.5772176143    1.2227611451
H        6.7750995677    1.1152253083    0.9183674964
H        5.8999532021   -0.2157421992    2.8556908695
H        6.1686926947   -1.2819781652    1.4767935806
H        3.5487618458   -0.1839938420    2.5794760450
H        4.0006792209   -1.8655152004    2.2958434153
H        2.2893179777   -2.4709777460   -0.0270231751
H        1.8163366084   -1.7158277000    1.5009693379
29   
torsion grid (150,)
C       -1.3062996367   -1.0308692961    0.5760314978
C       -1.1527647058    0.3327250715    0.3062485365
C       -0.2565325492   -1.9126486177    0.2951065727
C        0.0421574476    0.8118729958   -0.2380268729
C        0.9322873336   -1.4300428061   -0.2568922415
C        1.0936165157   -0.0638365732   -0.5237623151
C        3.7041342387    0.3875386282    0.8643688462
C        4.9458623968   -0.0907982420    1.6082489629
C        5.9339217064   -0.8797093496    0.7476836943
C        6.0986161274   -0.1367857472   -0.5773501122
C        4.7732316300   -0.1262555441   -1.3393750698
C        2.3681372828    0.4326318186   -1.1731357476
N        3.5966550663    0.0399770946   -0.4675325480
O        2.8146640197    0.9989534755    1.4539270237
H       -2.2329789513   -1.4028450448    1.0057962343
H       -1.9595510597    1.0257362825    0.5315368862
H       -0.3666588512   -2.9742167380    0.5033276397
H        0.1681469531    1.8770327529   -0.4160709321
H        1.7494752583   -2.1158528942   -0.4710668961
H        4.5851641447   -0.6699563622    2.4640721422
H        5.4254163111    0.8022212427    2.0243818086
H        5.5562501800   -1.8925814558    0.5608641042
H        6.8932938272   -0.9845027096    1.2649378282
H        6.8642132005   -0.5930912503   -1.2132256945
H        6.4213217947    0.8916991558   -0.3728252316
H        4.6568474952   -1.0677296216   -1.8931634714
H        4.7769895872    0.6821597443   -2.0828715858
H        2.3287073839    1.5252301180   -1.2739943258
H        2.4458649377    0.0131174299   -2.1818515478
29   
torsion grid (165,)
C       -1.3616463447   -0.9024534496    0.6239327671
C       -1.1597918034    0.4209002827    0.2207754841
C       -0.3383724296   -1.8415634756    0.4497363607
C        0.0593952947    0.8021392837   -0.3470374365
C        0.8731195534   -1.4559650122   -0.1268668707
C        1.0882481663   -0.1279389997   -0.5203124131
C        3.6803701390    0.1964681046    0.8789933675
C        4.9473171579   -0.2545968189    1.5997127153
C        6.0158418682   -0.8546728380    0.6850021033
C        6.1241686503    0.0402621994   -0.5482989818
C        4.8120754016    0.0046019473   -1.3332383392
C        2.3785793144    0.2622914366   -1.2065177119
N        3.6119836050   -0.0728839953   -0.4780200941
O        2.7519742582    0.6996547080    1.5061670963
H       -2.3063975267   -1.1998099462    1.0719449732
H       -1.9469624101    1.1583604320    0.3570157978
H       -0.4875065905   -2.8729572763    0.7602119594
H        0.2198727713    1.8385551931   -0.6346180880
H        1.6685853727   -2.1864463459   -0.2587557708
H        4.6225997440   -0.9562147691    2.3749296798
H        5.3374362446    0.6231750171    2.1262501045
H        5.7355294023   -1.8710649675    0.3824538279
H        6.9742287564   -0.9272938375    1.2094945613
H        6.9386891196   -0.2670516661   -1.2121253234
H        6.3415496266    1.0664138278   -0.2267597005
H        4.8048570434   -0.8652331672   -2.0035958813
H        4.7316656385    0.8968678360   -1.9696616094
H        2.3606061862    1.3399228634   -1.4234028439
H        2.4477379763   -0.2556110717   -2.1704640035
29   
torsion grid (180,)
C       -1.4874029857   -0.4694400254    0.5915312465
C       -0.7157350700    0.6979979653    0.6272049344
C       -0.9830554575   -1.6098097710   -0.0406749629
C        0.5471231977    0.7198769453    0.0332418646
C        0.2863969455   -1.5854775308   -0.6254372020
C        1.0666864916   -0.4260869231   -0.5851749656
C        3.6682804665   -0.5010350747    0.8391284903
C        4.9114823620   -0.0842089115    1.6219001950
C        6.2077009928   -0.1228869977    0.8066974469
C        5.9976649062    0.6146973442   -0.5146598215
C        4.8137940474    0.0152326253   -1.2649446705
C        2.4047464978   -0.3689177341   -1.2863975887
N        3.5744019475   -0.0038338148   -0.4607165603
O        2.7847236070   -1.1603201921    1.3752486014
H       -2.4721100424   -0.4889015757    1.0516486564
H       -1.1013773017    1.5905424182    1.1140112911
H       -1.5748617809   -2.5212826017   -0.0725367916
H        1.1457343960    1.6279787319    0.0632076884
H        0.6817030750   -2.4829712829   -1.0955638031
H        4.9592635715   -0.7295166543    2.5009567886
H        4.7294687910    0.9386019259    1.9767277445
H        6.4838606348   -1.1656146313    0.6033723063
H        7.0307512220    0.3177127321    1.3795781600
H        6.8881589191    0.5516550925   -1.1498334503
H        5.8046017024    1.6772198091   -0.3237773358
H        5.0542609988   -1.0088149151   -1.5940719402
H        4.6113376994    0.5995233305   -2.1688724607
H        2.3601010336    0.3787432690   -2.0868705780
H        2.5925941575   -1.3390910709   -1.7701905352
