
  -OEChem-12122420523D

 39 40  0     1  0  0  0  0  0999 V2000
    4.2213    0.8313   -1.7604 C   0  0  0  0  0  0  0  0  0  0  0  0
    3.0905    0.8598   -2.5369 C   0  0  0  0  0  0  0  0  0  0  0  0
    4.7691    2.6002   -3.0103 C   0  0  0  0  0  0  0  0  0  0  0  0
    0.6594    1.4362   -0.9086 C   0  0  0  0  0  0  0  0  0  0  0  0
    0.0499   -0.8411   -1.0440 C   0  0  0  0  0  0  0  0  0  0  0  0
   -0.2470    1.1768    0.3030 C   0  0  1  0  0  0  0  0  0  0  0  0
   -0.9898   -0.1175   -0.1415 C   0  0  2  0  0  0  0  0  0  0  0  0
    5.5703    3.7515   -3.5414 C   0  0  0  0  0  0  0  0  0  0  0  0
    0.5765    1.0388    1.5896 C   0  0  0  0  0  0  0  0  0  0  0  0
   -1.5259   -0.9936    0.9819 C   0  0  0  0  0  0  0  0  0  0  0  0
    5.6338   -1.1495   -1.0799 C   0  0  0  0  0  0  0  0  0  0  0  0
    4.5195   -0.1681   -0.6774 C   0  0  0  0  0  0  0  0  0  0  0  0
    1.8833   -0.0382   -2.4705 C   0  0  0  0  0  0  0  0  0  0  0  0
    5.1562    1.8153   -2.0435 N   0  0  0  0  0  0  0  0  0  0  0  0
    1.1681    0.0989   -1.2095 N   0  0  1  0  0  0  0  0  0  0  0  0
   -2.1571    0.2393   -0.9155 O   0  0  0  0  0  0  0  0  0  0  0  0
    3.1924    2.1875   -3.6659 S   0  0  0  0  0  0  0  0  0  0  0  0
    0.0859    1.8702   -1.7557 H   0  0  0  0  0  0  0  0  0  0  0  0
    1.4823    2.1244   -0.6975 H   0  0  0  0  0  0  0  0  0  0  0  0
    0.4090   -1.7787   -0.6035 H   0  0  0  0  0  0  0  0  0  0  0  0
   -0.4386   -1.0912   -2.0000 H   0  0  0  0  0  0  0  0  0  0  0  0
   -0.9875    1.9725    0.4313 H   0  0  0  0  0  0  0  0  0  0  0  0
    5.8070    3.6179   -4.6022 H   0  0  0  0  0  0  0  0  0  0  0  0
    5.0297    4.6982   -3.4374 H   0  0  0  0  0  0  0  0  0  0  0  0
    6.5036    3.8155   -2.9785 H   0  0  0  0  0  0  0  0  0  0  0  0
    1.3263    0.2475    1.4985 H   0  0  0  0  0  0  0  0  0  0  0  0
   -0.0586    0.8185    2.4524 H   0  0  0  0  0  0  0  0  0  0  0  0
    1.1051    1.9752    1.7978 H   0  0  0  0  0  0  0  0  0  0  0  0
   -2.2274   -0.4304    1.6047 H   0  0  0  0  0  0  0  0  0  0  0  0
   -0.7166   -1.3701    1.6117 H   0  0  0  0  0  0  0  0  0  0  0  0
   -2.0606   -1.8482    0.5561 H   0  0  0  0  0  0  0  0  0  0  0  0
    5.3392   -1.7377   -1.9559 H   0  0  0  0  0  0  0  0  0  0  0  0
    5.8547   -1.8439   -0.2620 H   0  0  0  0  0  0  0  0  0  0  0  0
    6.5515   -0.6093   -1.3302 H   0  0  0  0  0  0  0  0  0  0  0  0
    4.8269    0.3808    0.2205 H   0  0  0  0  0  0  0  0  0  0  0  0
    3.6021   -0.7049   -0.4233 H   0  0  0  0  0  0  0  0  0  0  0  0
    1.2236    0.1623   -3.3371 H   0  0  0  0  0  0  0  0  0  0  0  0
    2.2029   -1.0831   -2.5637 H   0  0  0  0  0  0  0  0  0  0  0  0
   -1.8799    0.8452   -1.6217 H   0  0  0  0  0  0  0  0  0  0  0  0
  1  2  2  0  0  0  0
  1 12  1  0  0  0  0
  1 14  1  0  0  0  0
  2 13  1  0  0  0  0
  2 17  1  0  0  0  0
  3  8  1  0  0  0  0
  3 14  2  0  0  0  0
  3 17  1  0  0  0  0
  4  6  1  0  0  0  0
  4 15  1  0  0  0  0
  4 18  1  0  0  0  0
  4 19  1  0  0  0  0
  5  7  1  0  0  0  0
  5 15  1  0  0  0  0
  5 20  1  0  0  0  0
  5 21  1  0  0  0  0
  6  7  1  0  0  0  0
  6  9  1  0  0  0  0
  6 22  1  0  0  0  0
  7 10  1  0  0  0  0
  7 16  1  0  0  0  0
  8 23  1  0  0  0  0
  8 24  1  0  0  0  0
  8 25  1  0  0  0  0
  9 26  1  0  0  0  0
  9 27  1  0  0  0  0
  9 28  1  0  0  0  0
 10 29  1  0  0  0  0
 10 30  1  0  0  0  0
 10 31  1  0  0  0  0
 11 12  1  0  0  0  0
 11 32  1  0  0  0  0
 11 33  1  0  0  0  0
 11 34  1  0  0  0  0
 12 35  1  0  0  0  0
 12 36  1  0  0  0  0
 13 15  1  0  0  0  0
 13 37  1  0  0  0  0
 13 38  1  0  0  0  0
 16 39  1  0  0  0  0
M  END
$$$$
