29   
torsion grid (-165,)
C        1.7397459622   -1.2391091755    0.8888494963
C        1.2851545008    0.0499690586    0.5792952881
C        7.4688541341    4.2905076409   -6.9175415384
C        2.8167447523   -1.7982564162    0.1907740614
C        1.9037557350    0.7937711388   -0.4325607104
C        7.4211866439    2.8757117349   -6.7757803518
C        6.7985297606    4.9400950425   -5.9057599987
C        3.4319462480   -1.0551459575   -0.8177284445
C        2.9773459415    0.2348315000   -1.1274292867
C        6.7189720418    2.4737979149   -5.6598619444
C        4.7913930706   -0.2369829403   -2.5841044301
C        6.5093984345    1.0754226901   -5.2510509520
C        4.6005153511   -1.4554226773   -1.6931435624
C        3.7884338562    0.8509779745   -2.2460265506
N        5.7061544793   -0.2294270361   -3.4750983628
O        6.9836784644    0.1101622242   -5.8040541763
O        5.6910894879    1.0379435045   -4.1425822703
S        6.1039848098    3.8410273213   -4.7696050754
H        1.2522583241   -1.8081188081    1.6762215216
H        0.4478604574    0.4734207602    1.1279410505
H        7.9742850721    4.8069964630   -7.7266549457
H        3.1663319939   -2.7991551146    0.4338032067
H        1.5494004502    1.7939951470   -0.6715230922
H        7.8792061825    2.1622235714   -7.4519393489
H        6.6787800341    6.0076647690   -5.7673340679
H        5.5086755936   -1.6628259606   -1.1163752324
H        4.3941979497   -2.3479120697   -2.2940084794
H        3.1891494527    1.1066914942   -3.1278061152
H        4.3047618692    1.7716220179   -1.9489803057
29   
torsion grid (-150,)
C        1.8135576842   -1.2839927879    0.9597497930
C        1.2079806313   -0.0840625233    0.5627247226
C        7.6250937127    4.2595807029   -6.8967967084
C        2.9553770730   -1.7547511790    0.3006546304
C        1.7382497832    0.6586578566   -0.4988544468
C        7.3392029711    2.8673730308   -6.8545640140
C        7.1731971956    4.9224375152   -5.7772164564
C        3.4820531992   -1.0124388945   -0.7573662850
C        2.8764286143    0.1882554267   -1.1553576149
C        6.6781507199    2.4954875496   -5.7026187625
C        4.7458216729   -0.1564570434   -2.5759542878
C        6.2653164044    1.1260181525   -5.3659405065
C        4.6968677593   -1.3267404796   -1.6046557561
C        3.6141836276    0.8201191941   -2.3152240860
N        5.6618118384   -0.0948013233   -3.4628404595
O        6.5443460281    0.1363747760   -6.0034547268
O        5.5185989667    1.1258045864   -4.2037672448
S        6.3982331582    3.8624444641   -4.6575318365
H        1.3932094391   -1.8527121950    1.7851131856
H        0.3216879553    0.2709079362    1.0822048658
H        8.1421646555    4.7522757704   -7.7133560514
H        3.4224528139   -2.6866205420    0.6114448126
H        1.2664782243    1.5894834651   -0.8056184451
H        7.6022759019    2.1489508366   -7.6232402424
H        7.2598881514    5.9782606085   -5.5514190355
H        5.6187838294   -1.3858791732   -1.0156868865
H        4.6022278283   -2.2750826622   -2.1449518033
H        2.9955883998    0.9359797335   -3.2131065536
H        4.0101312435    1.8163302875   -2.0847831370
29   
torsion grid (-135,)
C        1.9118042127   -1.3077464760    1.0283268856
C        1.1780028267   -0.2046475810    0.5712976437
C        7.7972215390    4.1989286180   -6.8306575898
C        3.0939050335   -1.6873205283    0.3815656854
C        1.6172976604    0.5304868752   -0.5361815921
C        7.3287692629    2.8583268541   -6.8806207038
C        7.4394336996    4.8362925012   -5.6622533726
C        3.5308213279   -0.9537107511   -0.7224209354
C        2.7960068314    0.1500337505   -1.1792658125
C        6.6265173745    2.4984530977   -5.7481354954
C        4.6807386267   -0.0725062275   -2.6027009619
C        6.0387144670    1.1803824705   -5.4886119522
C        4.7678163525   -1.1824832273   -1.5652628003
C        3.4540064013    0.7914451264   -2.3811211219
N        5.5745105981    0.0355318780   -3.5070430626
O        6.1866794143    0.1986499967   -6.1800239799
O        5.2980306061    1.1915358101   -4.3154241021
S        6.5328661874    3.8145713138   -4.6093555362
H        1.5606727591   -1.8711631085    1.8889684254
H        0.2613021142    0.0811006990    1.0805593992
H        8.3740756204    4.6744355083   -7.6168241657
H        3.6615754205   -2.5441189947    0.7375858487
H        1.0448588770    1.3856974639   -0.8884166862
H        7.4927398136    2.1663372767   -7.6994703348
H        7.6672046588    5.8530785718   -5.3662921992
H        5.6935967144   -1.1050085579   -0.9844406645
H        4.7750284711   -2.1658000220   -2.0481630888
H        2.8213452450    0.7912939190   -3.2766649993
H        3.7433433202    1.8352093556   -2.2098845329
29   
torsion grid (-120,)
C        2.0439121368   -1.2567600544    1.0950807213
C        1.2008827607   -0.2565058500    0.5921493821
C        7.9416723357    4.1245835372   -6.6776289729
C        3.2401443196   -1.5714396083    0.4393991363
C        1.5452868582    0.4403593198   -0.5721519457
C        7.3641338905    2.8386844475   -6.8495607957
C        7.5684984566    4.7113141762   -5.4867731393
C        3.5820649024   -0.8759375907   -0.7212246344
C        2.7383251950    0.1251621199   -1.2242577635
C        6.5643737401    2.4672972834   -5.7863149272
C        4.6027178609   -0.0173059001   -2.6838404581
C        5.8500895249    1.1982983057   -5.6424315953
C        4.8141524985   -1.0484988612   -1.5846493334
C        3.3063057839    0.7428416956   -2.4831166290
N        5.4631054272    0.1188267724   -3.6160296483
O        5.9294709062    0.2570922352   -6.3974102810
O        5.0563564996    1.1839916721   -4.4938778943
S        6.5149064710    3.7074704192   -4.5631881902
H        1.7664143839   -1.7916240583    1.9996996938
H        0.2743751738   -0.0212926062    1.1095043053
H        8.6040850132    4.5986502365   -7.3941639230
H        3.8916919276   -2.3488451346    0.8321789919
H        0.8892149863    1.2159916002   -0.9608851782
H        7.5184634357    2.1913859326   -7.7059479080
H        7.8642184001    5.6816522766   -5.1067555542
H        5.7430088138   -0.8549153186   -1.0368024608
H        4.8958861354   -2.0561994134   -2.0067430766
H        2.6568493274    0.6250412430   -3.3587289041
H        3.5006909609    1.8178991050   -2.3879899442
29   
torsion grid (-105,)
C        1.2812815489   -1.5754655869    0.0664882253
C        0.7992709539   -0.3337486256   -0.3693476235
C       10.5200283965    3.8681267639   -2.0842725320
C        2.6154943547   -1.9358255036   -0.1569802214
C        1.6464637808    0.5614372599   -1.0332884715
C        9.9217291363    3.0411879999   -3.0706148465
C        9.6850529638    4.0873528787   -1.0081216661
C        3.4585353793   -1.0420266736   -0.8189426949
C        2.9764031143    0.2008930583   -1.2549116185
C        8.6433089637    2.6435482216   -2.7277168095
C        5.2638099919    0.0842066848   -1.8688867299
C        7.7660813656    1.7733695077   -3.5071792992
C        4.9222950850   -1.2208653300   -1.1642428365
C        4.0600241813    1.0021313197   -1.9423666713
N        6.4423313565    0.2939234527   -2.3102418124
O        8.0458692978    1.2531162985   -4.5611437223
O        6.5098866355    1.6038668247   -2.9022148099
S        8.1668038850    3.2924380024   -1.1824804196
H        0.6144920582   -2.2627808279    0.5807137339
H       -0.2386944345   -0.0651388946   -0.1907607114
H       11.5194251200    4.2837106492   -2.1579843738
H        2.9862533922   -2.9006296560    0.1819975012
H        1.2697643493    1.5243225003   -1.3710399410
H       10.3903943599    2.7324485876   -3.9986739283
H        9.8900192324    4.6767082162   -0.1226359180
H        5.5492743580   -1.3652193844   -0.2773730335
H        5.0978493053   -2.0783782697   -1.8232092556
H        3.8288598525    1.2439896002   -2.9866515242
H        4.2734204098    1.9571178138   -1.4471355008
29   
torsion grid (-90,)
C        1.3751024428   -1.5662085545    0.1474592485
C        0.8183509560   -0.3989512894   -0.3925650156
C       10.5158614002    3.6877963385   -1.9765627147
C        2.7320708392   -1.8564180572   -0.0381174600
C        1.6132813670    0.4913037560   -1.1243462574
C        9.8915568570    2.9929174029   -3.0450883646
C        9.6790472016    3.8370464681   -0.8899022032
C        3.5224357133   -0.9672768468   -0.7678731403
C        2.9659752168    0.2013293159   -1.3084732102
C        8.5914225165    2.6249153627   -2.7538106615
C        5.2618296013    0.1834017816   -1.8987421860
C        7.6821263445    1.8943574192   -3.6336806204
C        4.9981527087   -1.0785984907   -1.0902700721
C        4.0024480158    1.0111332508   -2.0557901828
N        6.4280649076    0.4336732565   -2.3517760860
O        7.9298155957    1.5454348503   -4.7633929008
O        6.4108767960    1.6822046864   -3.0681915727
S        8.1287641061    3.1350046466   -1.1533802015
H        0.7485831033   -2.2506345441    0.7135420478
H       -0.2366393370   -0.1847505757   -0.2424189633
H       11.5335526348    4.0627220684   -2.0015859191
H        3.1605775304   -2.7637536255    0.3818503726
H        1.1788802670    1.3962322867   -1.5432557225
H       10.3557100988    2.7590156745   -3.9969771714
H        9.8992611126    4.3262517290    0.0511577797
H        5.6243507188   -1.1079961405   -0.1915719096
H        5.2348804621   -1.9746412053   -1.6746440306
H        3.7673670717    1.1488224044   -3.1179706122
H        4.1488427449    2.0165203314   -1.6426267526
29   
torsion grid (-75,)
C        1.4253251082   -1.5698209173    0.1866323311
C        0.8116407494   -0.4893673345   -0.4615414959
C       10.5433640105    3.5475598515   -1.9507256086
C        2.8042671463   -1.7781866288    0.0640117207
C        1.5694308260    0.3945267212   -1.2389914304
C        9.8554569540    2.9863216116   -3.0584007958
C        9.7613331088    3.5831997530   -0.8155746005
C        3.5582126605   -0.8961088376   -0.7113829061
C        2.9439777108    0.1853450975   -1.3598235051
C        8.5636023612    2.6042394159   -2.7499099278
C        5.2547651827    0.2801868591   -1.8801998264
C        7.6027642670    2.0238082867   -3.6895218149
C        5.0481017757   -0.9301992234   -0.9817236989
C        3.9490660043    1.0037238329   -2.1400860133
N        6.4168745401    0.5733479544   -2.3186973109
O        7.7970313547    1.8802402932   -4.8742875483
O        6.3395564842    1.7483140675   -3.1460978618
S        8.1891892448    2.9312570958   -1.0796695467
H        0.8267163323   -2.2498355788    0.7871959475
H       -0.2598255933   -0.3377227926   -0.3598621412
H       11.5649273354    3.9110277068   -1.9839204880
H        3.2778540751   -2.6181202988    0.5674278916
H        1.0900680988    1.2316352428   -1.7414992006
H       10.2676600564    2.8614868639   -4.0536832000
H       10.0330446077    3.9583924513    0.1635981755
H        5.6447768971   -0.8460213071   -0.0664797033
H        5.3635162114   -1.8506380953   -1.4854715464
H        3.7421385259    1.0405314634   -3.2162589640
H        4.0137023669    2.0463840744   -1.8061731139
29   
torsion grid (-60,)
C        1.4479177924   -1.5434655991    0.2226179601
C        0.8032674084   -0.5514948940   -0.5287771472
C       10.5585079063    3.4876124203   -1.9672363484
C        2.8389546573   -1.6879976983    0.1599515810
C        1.5417076721    0.3074067255   -1.3514656370
C        9.8004908459    3.0545092091   -3.0869046415
C        9.8794783557    3.3144360676   -0.7807406727
C        3.5733923007   -0.8306067820   -0.6604556069
C        2.9283497529    0.1621331197   -1.4125940736
C        8.5587469485    2.5574622573   -2.7388040015
C        5.2486043905    0.3412003249   -1.8640720672
C        7.5523158030    2.1169080281   -3.7136653194
C        5.0715142203   -0.8060014370   -0.8811558759
C        3.9174363108    0.9689098543   -2.2248833766
N        6.4105619152    0.6634225936   -2.2830348484
O        7.6981346831    2.1888339933   -4.9137619294
O        6.3044470956    1.7552727696   -3.2097885284
S        8.3240827425    2.6097513542   -1.0110780033
H        0.8637207229   -2.2046906171    0.8573383522
H       -0.2773288890   -0.4493154204   -0.4722101776
H       11.5558321149    3.9097394912   -2.0294908297
H        3.3364602959   -2.4592613981    0.7437742096
H        1.0385428418    1.0758306307   -1.9340018854
H       10.1245014900    3.1074373798   -4.1203458684
H       10.2205366377    3.5529369586    0.2194432619
H        5.6317911734   -0.6200102184    0.0421451910
H        5.4511011319   -1.7440081394   -1.3013725127
H        3.7480995671    0.9077003384   -3.3064888465
H        3.9161465204    2.0370052444   -1.9764491486
29   
torsion grid (-45,)
C        1.4417039470   -1.5479287099    0.2293898667
C        0.7772313234   -0.6718694996   -0.6396160286
C       10.6060245209    3.4460396048   -2.0178281714
C        2.8406190814   -1.5939257176    0.2563558921
C        1.5044612766    0.1680351111   -1.4913675170
C        9.7345773475    3.1699794345   -3.1037843833
C       10.0930947552    3.0067958050   -0.8176462631
C        3.5634997340   -0.7556450763   -0.5934894326
C        2.8989315836    0.1212458411   -1.4631704553
C        8.5717095859    2.5272644659   -2.7201558096
C        5.2245428868    0.4341617594   -1.7989610088
C        7.4912411044    2.2352554893   -3.6780133628
C        5.0670266575   -0.6388787954   -0.7330337727
C        3.8777165062    0.9296161747   -2.2862079543
N        6.3845300603    0.8074246715   -2.1792686171
O        7.5661852232    2.4940557118   -4.8604491868
O        6.2646376415    1.8093673650   -3.1916980624
S        8.5611616471    2.2365226680   -0.9974308466
H        0.8667435272   -2.1956297211    0.8860694926
H       -0.3092519182   -0.6452448124   -0.6519911503
H       11.5642716568    3.9451836632   -2.1147020174
H        3.3531823778   -2.2753102322    0.9317391708
H        0.9864409739    0.8466448467   -2.1652043520
H        9.9197991692    3.4387482545   -4.1376239378
H       10.5486094357    3.0767803403    0.1629770425
H        5.5569939328   -0.3374849774    0.1997964887
H        5.5353790609   -1.5772210366   -1.0505052069
H        3.7798047469    0.7674082775   -3.3661798912
H        3.7874898921    2.0114286352   -2.1319057643
29   
torsion grid (-30,)
C        1.4482417637   -1.5664392263    0.2233523214
C        0.7776372885   -0.8072686772   -0.7452166369
C       10.6752175901    3.3474717562   -2.0619760782
C        2.8427190333   -1.5049987270    0.3300274327
C        1.4926176517    0.0219317307   -1.6175451423
C        9.7058187407    3.2295586649   -3.0913892738
C       10.2665044222    2.7411362365   -0.8954176240
C        3.5539452933   -0.6779850718   -0.5404305632
C        2.8826635776    0.0821572718   -1.5091247069
C        8.5717575977    2.5392325349   -2.7009659975
C        5.1962706938    0.5445907177   -1.7389237873
C        7.4288751705    2.3901727481   -3.6222814163
C        5.0509923413   -0.4588953995   -0.6058115266
C        3.8493255318    0.9018846700   -2.3353704383
N        6.3472792118    0.9769855837   -2.0809621692
O        7.4497803237    2.8002426316   -4.7646943088
O        6.2233204106    1.8939710985   -3.1636874364
S        8.7126444304    2.0074224238   -1.0403918853
H        0.8820026024   -2.2064260817    0.8950059268
H       -0.3052648293   -0.8632588082   -0.8189840420
H       11.6272846759    3.8549140333   -2.1755348851
H        3.3608620366   -2.0954933527    1.0823334010
H        0.9690740203    0.6097979529   -2.3680176508
H        9.8023340880    3.6403643359   -4.0898856642
H       10.8096175313    2.6714533341    0.0397733674
H        5.4616637005   -0.0561236994    0.3269791061
H        5.6030965986   -1.3794109620   -0.8261141339
H        3.8278433614    0.6574308116   -3.4039732031
H        3.6735625536    1.9819666995   -2.2674397488
29   
torsion grid (-15,)
C        1.4546257198   -1.5873779758    0.1939515110
C        0.7953623615   -0.9380269655   -0.8586288135
C       10.7523104495    3.2225089604   -2.1294738605
C        2.8324246859   -1.4203802445    0.3767911762
C        1.5058225056   -0.1146796645   -1.7401264114
C        9.7024674231    3.2598739477   -3.0825759164
C       10.4042132088    2.5032865033   -1.0083810020
C        3.5388221579   -0.5990512012   -0.5028874375
C        2.8792888231    0.0507370473   -1.5561900672
C        8.5683617173    2.5737210943   -2.6824168040
C        5.1666173546    0.6606070345   -1.6827610332
C        7.3734849965    2.5579943004   -3.5499814378
C        5.0185402951   -0.2771092746   -0.4949566501
C        3.8379384388    0.8847439962   -2.3775085447
N        6.3048401372    1.1510258478   -1.9861518668
O        7.3489728770    3.0966164859   -4.6384831791
O        6.1898714889    1.9880658388   -3.1289144157
S        8.8077398705    1.8580864570   -1.1026506106
H        0.8923547477   -2.2241828499    0.8719176236
H       -0.2746750481   -1.0751798029   -0.9907573543
H       11.7159550588    3.7022809392   -2.2639984800
H        3.3415148973   -1.9255699044    1.1945474670
H        0.9914291502    0.3878490951   -2.5560439712
H        9.7445822110    3.7725848291   -4.0366362095
H       11.0119251568    2.3100737312   -0.1320245307
H        5.3406918074    0.2123953801    0.4310287753
H        5.6453386800   -1.1671739096   -0.6200552233
H        3.8979148853    0.5745134000   -3.4273725627
H        3.5869653094    1.9519019778   -2.3904619965
29   
torsion grid (0,)
C        1.4618539110   -1.6215062827    0.1822055292
C        0.8305760453   -1.0853990684   -0.9484011348
C       10.8003650974    3.0962850303   -2.2085249095
C        2.8101480042   -1.3453187400    0.4381926837
C        1.5398115987   -0.2672709299   -1.8357035142
C        9.6856362573    3.2917323678   -3.0632224053
C       10.4967810184    2.2750701183   -1.1460685120
C        3.5153862168   -0.5295667286   -0.4475555127
C        2.8838627735    0.0069444299   -1.5789146833
C        8.5470614127    2.6217564717   -2.6476333631
C        5.1282933081    0.7695794274   -1.6048319603
C        7.3067166265    2.7285081036   -3.4422938216
C        4.9662171373   -0.1025455180   -0.3698650843
C        3.8356491560    0.8565017802   -2.3921607943
N        6.2475891141    1.3219556420   -1.8692929267
O        7.2393839187    3.3858561658   -4.4619112164
O        6.1487214022    2.0831609907   -3.0641915407
S        8.8599644725    1.7332587408   -1.1712273325
H        0.9007665588   -2.2552930040    0.8639609070
H       -0.2166974300   -1.3066925514   -1.1367961480
H       11.7773312935    3.5395960008   -2.3694615418
H        3.2974812596   -1.7626777129    1.3165006225
H        1.0472178754    0.1474396269   -2.7121845105
H        9.6875754541    3.8977498575   -3.9618961646
H       11.1556032333    1.9601345766   -0.3451401134
H        5.1932239158    0.4634490726    0.5405152946
H        5.6586688010   -0.9513924091   -0.3988454146
H        3.9842317837    0.4885957986   -3.4142481920
H        3.5154584213    1.9004914658   -2.4893383122
29   
torsion grid (15,)
C        1.4742428512   -1.6517548773    0.1494177770
C        0.8898191793   -1.2245263750   -1.0506394371
C       10.8409492209    2.9646154881   -2.3026054781
C        2.7792659868   -1.2663335652    0.4780762381
C        1.6032171815   -0.4072774306   -1.9354355796
C        9.6856875680    3.3125999373   -3.0484547016
C       10.5558727750    2.0608151105   -1.3040235062
C        3.4888192154   -0.4518101631   -0.4053827195
C        2.9041685281   -0.0241959041   -1.6062102623
C        8.5355766277    2.6744428035   -2.6159197009
C        5.0897739447    0.8907362920   -1.5292522250
C        7.2583184657    2.9014050171   -3.3215963220
C        4.8985065523    0.0810001209   -0.2565115180
C        3.8519614495    0.8449562089   -2.4033381784
N        6.1870016773    1.5028403719   -1.7518053167
O        7.1563764875    3.6667280521   -4.2593778912
O        6.1223892926    2.1905167712   -2.9938493119
S        8.8860609185    1.6328553788   -1.2530627790
H        0.9104088420   -2.2859466728    0.8285344092
H       -0.1241488972   -1.5300373203   -1.2951455719
H       11.8326527373    3.3609246574   -2.4932755343
H        3.2302778631   -1.5993046180    1.4101896076
H        1.1469369727   -0.0771529443   -2.8658574389
H        9.6684394798    3.9996932652   -3.8865871062
H       11.2439509290    1.6309329652   -0.5854090537
H        5.0211150747    0.7124179480    0.6305458476
H        5.6467432931   -0.7166258017   -0.1862976078
H        4.0945883841    0.4336820552   -3.3903151053
H        3.4715443073    1.8575313497   -2.5818806105
29   
torsion grid (30,)
C        1.5716202060   -1.9185361782   -0.6850238688
C        1.0478420273   -0.6990664789   -0.2347660729
C        9.9721857986    3.0850114511   -5.0332653524
C        2.8505126992   -1.9755511026   -1.2515399031
C        1.7972963087    0.4780162758   -0.3463838511
C        9.3480740986    3.6783658994   -3.9055493543
C        9.3929435409    1.8824816125   -5.3708290959
C        3.5956093256   -0.8007479073   -1.3615411866
C        3.0718776420    0.4200388254   -0.9118446196
C        8.3027819426    2.9269756084   -3.3977435754
C        5.2330610529    0.8645040013   -1.7786376099
C        7.4920621882    3.4316685892   -2.2729086441
C        4.9870330915   -0.6279436944   -1.9338182564
C        4.0483910910    1.5545080178   -1.1320188415
N        6.3302267658    1.3866808433   -2.1689365277
O        7.7349127401    4.4779196507   -1.7071491191
O        6.3245871376    2.7872263787   -1.9101641976
S        8.0995559932    1.4512664205   -4.3148657449
H        0.9804616900   -2.8259506212   -0.5932867965
H        0.0537827122   -0.6678561366    0.2035989578
H       10.8069712154    3.5232715504   -5.5698220782
H        3.2539498688   -2.9238598120   -1.5995338850
H        1.3887841179    1.4232400276    0.0036795040
H        9.6245064178    4.6310124192   -3.4683808838
H        9.6738331764    1.2160901433   -6.1779401288
H        5.7420392493   -1.2069193625   -1.3902799479
H        5.0526258354   -0.9266676362   -2.9861750198
H        3.6593581852    2.3434572272   -1.7864763169
H        4.3559085005    2.0530802844   -0.2052115154
29   
torsion grid (45,)
C        1.5600078529   -1.9090813638   -0.6983927202
C        0.9947847429   -0.6633532235   -0.3936685304
C        9.8767867421    3.1334063843   -5.1028682527
C        2.8845424489   -1.9960819459   -1.1431897872
C        1.7476147090    0.5089830717   -0.5303364172
C        9.3901944237    3.6397352911   -3.8692527568
C        9.1581771325    2.0405197440   -5.5337493404
C        3.6332591086   -0.8262421266   -1.2789153964
C        3.0677499891    0.4204352780   -0.9741014500
C        8.3100612529    2.9305002374   -3.3765107421
C        5.2964449994    0.8178768597   -1.6769883937
C        7.5947138775    3.3475137730   -2.1581011990
C        5.0696815382   -0.6845720491   -1.7375178021
C        4.0570014833    1.5438391485   -1.1936687249
N        6.4233853801    1.3190486507   -2.0061673257
O        7.9277012316    4.3021933151   -1.4884279935
O        6.3867790205    2.7396580195   -1.8517611831
S        7.9013824133    1.6038090045   -4.4372870623
H        0.9660537895   -2.8126420916   -0.5882423320
H       -0.0344308773   -0.6079824953   -0.0487784400
H       10.7149223444    3.5539834946   -5.6482207681
H        3.3205137411   -2.9644289459   -1.3785021901
H        1.3066185998    1.4743477738   -0.2926199276
H        9.7870295100    4.5037076243   -3.3482567927
H        9.3176876259    1.4542867413   -6.4309143877
H        5.7747105404   -1.2131342061   -1.0862453032
H        5.2291195907   -1.0628076938   -2.7536996560
H        3.7257219096    2.2765501323   -1.9391092725
H        4.2797340913    2.1147077644   -0.2844298262
29   
torsion grid (60,)
C        1.5669593546   -1.9033647020   -0.7062813737
C        0.9659339597   -0.6455065441   -0.5624113792
C        9.8121518035    3.1395340528   -5.1379835967
C        2.9275898653   -2.0068173939   -1.0191416114
C        1.7192408147    0.5225564557   -0.7298636599
C        9.4704684092    3.5441571269   -3.8206853036
C        8.8909595090    2.2627426290   -5.6685232760
C        3.6764907913   -0.8410992446   -1.1859799560
C        3.0754512692    0.4179145537   -1.0419428265
C        8.2979376261    2.9705325535   -3.3663537768
C        5.3560121951    0.7893886762   -1.5712575948
C        7.6838557298    3.2823276239   -2.0690866060
C        5.1479057830   -0.7165890927   -1.5222689120
C        4.0721512394    1.5339995455   -1.2653290365
N        6.5042282789    1.2775404868   -1.8410755526
O        8.1229364618    4.1038241662   -1.2951666623
O        6.4393925778    2.7117338977   -1.8085213044
S        7.6132108400    1.9080352615   -4.5683924499
H        0.9726673341   -2.8036841448   -0.5735464858
H       -0.0911568707   -0.5773666598   -0.3189527634
H       10.6924534017    3.4786076505   -5.6735308732
H        3.3911473099   -2.9846322804   -1.1294916325
H        1.2505473076    1.4975124336   -0.6169652864
H       10.0382215507    4.2395534477   -3.2125257964
H        8.9059853036    1.7960565368   -6.6460449333
H        5.7933630771   -1.1766235589   -0.7657548921
H        5.4027401143   -1.1783758424   -2.4828770250
H        3.8046258758    2.1967710061   -2.0970063188
H        4.2064876494    2.1817906481   -0.3908865410
29   
torsion grid (75,)
C        1.5598326392   -1.8948559444   -0.6589652198
C        0.9476095501   -0.6341837866   -0.6549913386
C        9.7909755140    3.1758381462   -5.1817844398
C        2.9364160709   -2.0118303939   -0.8853289558
C        1.7037263759    0.5228982727   -0.8772593664
C        9.5362858624    3.4702373976   -3.8166499249
C        8.7485435029    2.4920802254   -5.7711275442
C        3.6889608812   -0.8575353766   -1.1067608240
C        3.0758115076    0.4039517919   -1.1029585855
C        8.3066145742    3.0062624546   -3.3893098708
C        5.3821417944    0.7499334827   -1.5280686884
C        7.7542289195    3.1854149636   -2.0453695085
C        5.1768408478   -0.7491934488   -1.3685059752
C        4.0794342804    1.5058377577   -1.3624785970
N        6.5423234104    1.2253712726   -1.7661688370
O        8.2763644893    3.8293563815   -1.1651475183
O        6.4673582443    2.6594782639   -1.8618267800
S        7.4544073560    2.1941787844   -4.6744204928
H        0.9623736812   -2.7859895735   -0.4847084008
H       -0.1217861732   -0.5551248113   -0.4775057018
H       10.6967378813    3.4543277966   -5.7098368171
H        3.4095374594   -2.9912958956   -0.8870778730
H        1.2254032188    1.4997568471   -0.8726777129
H       10.2093618859    4.0039181645   -3.1546451459
H        8.6792094401    2.1460640755   -6.7952576117
H        5.7790960140   -1.1412217469   -0.5413993738
H        5.4864991062   -1.2862112592   -2.2720837409
H        3.8578899207    2.0929731706   -2.2618956375
H        4.1599317771    2.2266098605   -0.5400609694
29   
torsion grid (90,)
C        1.5174929097   -1.8710336541   -0.6001920837
C        0.9131373271   -0.6151330523   -0.7470493248
C        9.7373125156    3.2926899369   -5.2466329469
C        2.9045202685   -2.0092839653   -0.7306546427
C        1.6891128949    0.5162138232   -1.0261010624
C        9.5573712269    3.4582304007   -3.8485459940
C        8.6324513204    2.7321823705   -5.8535425663
C        3.6763844245   -0.8803251571   -1.0089875144
C        3.0716297809    0.3766556863   -1.1562245443
C        8.3199420675    3.0210506538   -3.4147767701
C        5.4020672491    0.6823435593   -1.4655062491
C        7.8265481523    3.0462206425   -2.0397948216
C        5.1778955419   -0.7973775010   -1.1897807148
C        4.0956600354    1.4498425391   -1.4532891897
N        6.5776440884    1.1352968734   -1.6676826045
O        8.4227593475    3.4950877279   -1.0897867764
O        6.5150181536    2.5529444434   -1.9098548416
S        7.3664449314    2.4000683475   -4.7342367597
H        0.9052235029   -2.7424860481   -0.3830834394
H       -0.1645666249   -0.5196975217   -0.6428608720
H       10.6364550967    3.5718049092   -5.7856352051
H        3.3706898277   -2.9852930249   -0.6152897921
H        1.2175980789    1.4899125217   -1.1386956879
H       10.2902717828    3.8765980625   -3.1673329426
H        8.5021078565    2.4997751072   -6.9035015748
H        5.7279954687   -1.1177000851   -0.2980878159
H        5.5355048516   -1.4112212097   -2.0240599518
H        3.9340528815    1.9494212825   -2.4162476028
H        4.1280722923    2.2446628754   -0.6985995515
29   
torsion grid (105,)
C        1.4547072114   -1.8201740168   -0.5045511951
C        0.8787344271   -0.5759164156   -0.7947524641
C        9.7349173485    3.5024180725   -5.2868276333
C        2.8434577757   -1.9881531422   -0.5601104290
C        1.6853349157    0.5137777394   -1.1438936507
C        9.5826616841    3.5144625977   -3.8756880978
C        8.6214910317    3.0014666584   -5.9292357541
C        3.6458773409   -0.9006948034   -0.9084861567
C        3.0695808577    0.3445596373   -1.1992499853
C        8.3577492589    3.0207939536   -3.4683140765
C        5.4166290613    0.5895554762   -1.4313719491
C        7.8956362337    2.8740055491   -2.0901995995
C        5.1547956388   -0.8551550323   -1.0305632553
C        4.1236484377    1.3711779685   -1.5511128720
N        6.6081286483    1.0042308612   -1.6212622433
O        8.5346210167    3.1433614981   -1.1007893917
O        6.5801497654    2.3870763877   -2.0186651231
S        7.3798277323    2.5402038824   -4.8279399730
H        0.8188984351   -2.6592880547   -0.2342201281
H       -0.2006495239   -0.4570229187   -0.7477271298
H       10.6218464760    3.8441566869   -5.8098099184
H        3.2874582274   -2.9549814945   -0.3335837430
H        1.2357851569    1.4785656903   -1.3679640719
H       10.3274002186    3.8607677286   -3.1673783582
H        8.4726118394    2.8813284029   -6.9954593260
H        5.6616388250   -1.0983342059   -0.0902243195
H        5.5360943541   -1.5487613377   -1.7882719833
H        4.0119556202    1.7772288277   -2.5638054562
H        4.1363770299    2.2344038383   -0.8750641312
29   
torsion grid (120,)
C        1.3862501243   -1.7515190235   -0.3752021265
C        0.8491177715   -0.5309151065   -0.8062004283
C        9.7482849592    3.7386634532   -5.2852273578
C        2.7714588365   -1.9540975466   -0.3771164819
C        1.6897555095    0.4995700705   -1.2436673306
C        9.5986366839    3.5832682652   -3.8816516707
C        8.6574179654    3.2651597497   -5.9834571696
C        3.6085707084   -0.9261206107   -0.8134045863
C        3.0703254380    0.2951041931   -1.2446715232
C        8.3991575106    2.9914029089   -3.5366407700
C        5.4284826031    0.4653420669   -1.4329274197
C        7.9539811574    2.6680110118   -2.1808132278
C        5.1205026487   -0.9263901173   -0.8994481819
C        4.1575051203    1.2568705894   -1.6711988424
N        6.6356470150    0.8318420853   -1.6233248827
O        8.6112788327    2.7988253571   -1.1744924460
O        6.6533138323    2.1597302542   -2.1761740388
S        7.4402974121    2.6246872421   -4.9447062407
H        0.7236665613   -2.5441524435   -0.0372974699
H       -0.2277978878   -0.3840209868   -0.7999907944
H       10.6184590027    4.1760687024   -5.7631766388
H        3.1862778309   -2.9019271338   -0.0414249466
H        1.2692982733    1.4458062436   -1.5768305201
H       10.3286542805    3.8797281318   -3.1363801349
H        8.5119121988    3.2589194148   -7.0568549630
H        5.5992667120   -1.0860130087    0.0728919535
H        5.5028581903   -1.6996954334   -1.5749936761
H        4.0818447927    1.5559854944   -2.7236060087
H        4.1724330136    2.1857819318   -1.0888262298
29   
torsion grid (135,)
C        1.3263574533   -1.6612747185   -0.2612177127
C        0.8314565152   -0.4824953807   -0.8354289439
C        9.7133315327    3.9579437216   -5.2490042901
C        2.7052267623   -1.8960928649   -0.2032194214
C        1.7099427644    0.4741899255   -1.3578094548
C        9.5848906383    3.6332220820   -3.8715800827
C        8.6437890922    3.5109521022   -5.9944103344
C        3.5795691169   -0.9412921605   -0.7244478810
C        3.0842111543    0.2383025463   -1.2989846918
C        8.4230029709    2.9420147711   -3.5934142090
C        5.4507054796    0.3336290874   -1.4367722283
C        8.0150010879    2.4464376890   -2.2749749286
C        5.0924718151   -0.9862190957   -0.7693091398
C        4.2063515345    1.1225994819   -1.7966541913
N        6.6726340028    0.6499015476   -1.6244528056
O        8.6931097989    2.4777306672   -1.2735519800
O        6.7389652380    1.9037274007   -2.3241146016
S        7.4722552265    2.6888495551   -5.0319793836
H        0.6350544207   -2.3968986196    0.1417257868
H       -0.2410548884   -0.3105563162   -0.8744712851
H       10.5549206862    4.4938408198   -5.6750105526
H        3.0863406080   -2.8116203859    0.2436356425
H        1.3230992224    1.3885051244   -1.8022303440
H       10.3048253081    3.8806206827   -3.0991263040
H        8.4884350118    3.6199938781   -7.0608590763
H        5.5443511464   -1.0537476349    0.2263190581
H        5.4709806729   -1.8346697170   -1.3501887324
H        4.1652411797    1.3055998127   -2.8771257549
H        4.2293246250    2.1092045642   -1.3189245135
29   
torsion grid (150,)
C        1.4806493623   -1.7840031079    0.0232304655
C        0.9979611455   -0.4682486967    0.0218595588
C        8.2669456408    5.4571547046   -5.2269339278
C        2.7569950552   -2.0737841844   -0.4734954503
C        1.7881688154    0.5739925600   -0.4771325257
C        8.6430730068    4.4343308690   -4.3136195797
C        6.9156528847    5.4499354394   -5.4933348398
C        3.5424872386   -1.0327183559   -0.9704314512
C        3.0605662788    0.2843840861   -0.9720180502
C        7.5733754179    3.6657704651   -3.9044803124
C        5.2442089254    0.3372659603   -1.8998006469
C        7.6503798437    2.5269383187   -2.9792560822
C        4.9383894902   -1.1120072471   -1.5515417585
C        4.0763725623    1.2423340704   -1.5544960319
N        6.3697413011    0.6516340382   -2.4134011272
O        8.6722245627    2.0557466553   -2.5350971095
O        6.3819392370    2.0584630957   -2.6944512192
S        6.0863550892    4.1989022045   -4.6417263808
H        0.8587023384   -2.5854094529    0.4134365338
H        0.0052349186   -0.2568006465    0.4106774417
H        8.9588410609    6.1655500517   -5.6700630100
H        3.1277011003   -3.0963899857   -0.4701010934
H        1.4124392642    1.5947521103   -0.4771059325
H        9.6515409555    4.2484387825   -3.9606353696
H        6.3658971527    6.1132174016   -6.1498992058
H        5.6725114681   -1.5032735316   -0.8387082510
H        4.9889156819   -1.7475695700   -2.4425567699
H        3.7155065376    1.7634781100   -2.4492852009
H        4.3921503670    2.0223810558   -0.8516499420
29   
torsion grid (165,)
C        1.4817954721   -1.6939381899    0.0892739960
C        0.9774663145   -0.3998612906   -0.0985087954
C        8.2004566212    5.5392180564   -5.1027708495
C        2.7864419544   -2.0101044520   -0.3077080436
C        1.7707041837    0.5932884725   -0.6851651900
C        8.6222597325    4.3830024757   -4.3892516789
C        6.8293676501    5.6304456626   -5.1859477678
C        3.5762451683   -1.0189620033   -0.8922908191
C        3.0710179365    0.2758002171   -1.0801935382
C        7.5670934055    3.6154555815   -3.9447647657
C        5.2976909371    0.2676134000   -1.9024204541
C        7.6960434517    2.3601199865   -3.1872388278
C        5.0003726657   -1.1348141478   -1.3928860185
C        4.0965465628    1.1790522133   -1.7292121369
N        6.4436836588    0.5433688542   -2.3935788110
O        8.7408260497    1.8118007492   -2.9221344888
O        6.4446299572    1.9087994990   -2.8268068571
S        6.0357452285    4.3140183397   -4.3997614234
H        0.8558987440   -2.4561401748    0.5461052725
H       -0.0369501109   -0.1664409535    0.2142058593
H        8.8750535925    6.2699296700   -5.5362188071
H        3.1756429124   -3.0150803063   -0.1605297806
H        1.3761981271    1.5966818553   -0.8291757861
H        9.6531273941    4.1042468986   -4.2003501659
H        6.2438717808    6.4021275434   -5.6706049770
H        5.7054743413   -1.4195965178   -0.6043290685
H        5.1065227209   -1.8720778716   -2.1964065707
H        3.7713908082    1.5754730649   -2.6985356053
H        4.3608296362    2.0484365857   -1.1157243393
29   
torsion grid (180,)
C        1.4825412479   -1.6449276398    0.1342268927
C        0.9323700058   -0.4147630815   -0.2507703529
C        8.1628690568    5.5665420596   -5.0333209916
C        2.8247230606   -1.9368125528   -0.1361736478
C        1.7190278520    0.5369076580   -0.9105139820
C        8.5720786844    4.2808877597   -4.5813486375
C        6.8366119617    5.8186281048   -4.7653474044
C        3.6074493577   -0.9868520838   -0.7939660116
C        3.0568669837    0.2440556408   -1.1791444830
C        7.5521444083    3.5776911850   -3.9777180820
C        5.3320117261    0.2519442684   -1.8565471740
C        7.6798008271    2.2232962212   -3.4134968106
C        5.0664303874   -1.0873532289   -1.1854843783
C        4.0821747827    1.1132715093   -1.8733670102
N        6.4934607466    0.5220977774   -2.3138754241
O        8.6932021453    1.5640074432   -3.4148742728
O        6.4672693915    1.8328305081   -2.8881671519
S        6.0701914705    4.4965780680   -3.9610229101
H        0.8626743214   -2.3765028497    0.6460227965
H       -0.1109594338   -0.1992381780   -0.0354295459
H        8.8154981442    6.2742617868   -5.5333826647
H        3.2484245322   -2.8925171701    0.1641064437
H        1.2898696409    1.4910097705   -1.2082409587
H        9.5696295203    3.8681396245   -4.6841880820
H        6.2696052726    6.7115358698   -4.9986696012
H        5.7279676134   -1.2295456461   -0.3239136915
H        5.2623312672   -1.9143399432   -1.8769685572
H        3.8065338214    1.3694457897   -2.9032919609
H        4.2640208661    2.0644867563   -1.3593649783
