14   
torsion grid (-165,)
C        1.4290697228   -0.1435934904    1.6374079875
C        1.6181742284   -0.5468432524    2.9496263866
C       -0.4806623792   -1.6024167252    1.5329635817
C        0.3581337325   -0.6799437435    0.9015520678
C        0.7134922621   -1.4801154718    3.4860269651
N       -1.8072110055   -0.6257580651   -1.6550679576
N       -0.3055375973   -1.9941990406    2.8043117617
N        0.2089859668   -0.2424870296   -0.4433152590
N       -0.8720367708   -0.4753730143   -1.0117316420
O        0.8825560471   -1.8853400250    4.7725949336
H        2.0924433326    0.5773420946    1.1687883900
H        2.4287571800   -0.1627155547    3.5594839521
H       -1.3226657982   -2.0474388250    1.0045873221
H        0.1668183381   -2.5215602102    4.9541740958
14   
torsion grid (-150,)
C        1.4254915001   -0.1650091658    1.6201577065
C        1.5943742983   -0.5245285218    2.9484070141
C       -0.4342993346   -1.6864177333    1.5134486075
C        0.3916891836   -0.7575685888    0.8758974046
C        0.7043287259   -1.4683528587    3.4904127987
N       -1.8709606637   -0.3913119585   -1.5678345199
N       -0.2818292891   -2.0338533466    2.8003517383
N        0.2555365844   -0.3781416044   -0.4915421741
N       -0.8863365103   -0.4064016285   -0.9839841374
O        0.8527442819   -1.8297170984    4.7922568478
H        2.0771323380    0.5634519921    1.1467393007
H        2.3762354644   -0.0969231169    3.5667963374
H       -1.2461206665   -2.1733570606    0.9746863757
H        0.1523313470   -2.4823116629    4.9756092855
14   
torsion grid (-135,)
C        1.4066505772   -0.1868238255    1.5985430602
C        1.5649925033   -0.5018384127    2.9400834684
C       -0.3967630220   -1.7745972906    1.5064010498
C        0.4072669425   -0.8363894640    0.8565187837
C        0.6971982401   -1.4587104234    3.4947196221
N       -1.8743548360   -0.1364522284   -1.4945011803
N       -0.2572047387   -2.0785235918    2.8057562230
N        0.2722799144   -0.5199904448   -0.5322712281
N       -0.8801432485   -0.3296552713   -0.9614969602
O        0.8339604242   -1.7755454542    4.8089909106
H        2.0420741622    0.5489463398    1.1144689975
H        2.3206645142   -0.0301057983    3.5589769733
H       -1.1792503787   -2.3045508239    0.9649103858
H        0.1529462050   -2.4462056642    5.0003024797
14   
torsion grid (-120,)
C        1.8427359552   -0.2477594941    1.7736659982
C        1.8626035059   -0.8572444758    3.0203008784
C       -0.4305726887   -0.9898501112    1.5207277392
C        0.6730681946   -0.3123534316    1.0012495327
C        0.6921623704   -1.5065518305    3.4493095853
N       -0.8853602149    2.0223090990   -0.8275717801
N       -0.4241430304   -1.5748197992    2.7281646455
N        0.6586390935    0.2831486702   -0.3053737505
N       -0.1733897967    1.1884297432   -0.5010334610
O        0.6912856674   -2.1039783070    4.6692694061
H        2.7150440795    0.2718431090    1.3880865508
H        2.7389621553   -0.8385525494    3.6592838133
H       -1.3512921114   -1.0685501866    0.9446070040
H       -0.1950248178   -2.4939829665    4.7815572520
14   
torsion grid (-105,)
C        1.7844916574   -0.2333342660    1.7527211124
C        1.8340625045   -0.8160085850    3.0116666650
C       -0.4546318511   -1.0736343900    1.5216777166
C        0.6150680880   -0.3564277870    0.9871567722
C        0.6935387782   -1.5068264305    3.4562488368
N       -0.6555095328    2.1961571231   -0.7754926637
N       -0.4198673683   -1.6373726392    2.7391819265
N        0.5585205249    0.1909488281   -0.3433777348
N       -0.0934020227    1.2420376649   -0.4894081496
O        0.7213171990   -2.0809985365    4.6868154337
H        2.6363268165    0.3095654285    1.3533198719
H        2.7117631750   -0.7511458871    3.6458000400
H       -1.3703053999   -1.2030753505    0.9474314019
H       -0.1466542066   -2.5077977034    4.8085021850
14   
torsion grid (-90,)
C        1.7166669598   -0.2078535573    1.7349621393
C        1.8024021627   -0.7744590563    2.9991838307
C       -0.4874916276   -1.1470252036    1.5341084638
C        0.5420600254   -0.3832967487    0.9867836153
C        0.6971002442   -1.5104021641    3.4603072084
N       -0.3814782790    2.3263771476   -0.7583227423
N       -0.4152326849   -1.6997707477    2.7551230201
N        0.4354659899    0.1231997993   -0.3580129488
N       -0.0007426770    1.2829237469   -0.4861395734
O        0.7617186570   -2.0708549038    4.6955517212
H        2.5441505323    0.3616381744    1.3209722729
H        2.6838572206   -0.6690350149    3.6225948344
H       -1.3993733974   -1.3227798549    0.9668562366
H       -0.0843847641   -2.5365741476    4.8282753358
14   
torsion grid (-75,)
C        1.6405684802   -0.1718830248    1.7247251710
C        1.7682275453   -0.7341879777    2.9871304474
C       -0.5241756044   -1.2041279933    1.5544740395
C        0.4604462163   -0.3913467659    0.9953925174
C        0.7036196880   -1.5196632018    3.4623952616
N       -0.0840130804    2.4009070843   -0.7777219454
N       -0.4082815890   -1.7576554329    2.7717379877
N        0.2994899859    0.0870142443   -0.3520118522
N        0.0979858855    1.3080954868   -0.4934274683
O        0.8112045996   -2.0793301372    4.6951984717
H        2.4405941618    0.4292268372    1.3007690489
H        2.6546463828   -0.5935903658    3.5964410231
H       -1.4346080660   -1.4181694625    0.9987074639
H       -0.0109862437   -2.5832018213    4.8384332476
14   
torsion grid (-60,)
C        1.5648100167   -0.1301109515    1.7207255031
C        1.7365700271   -0.6983665359    2.9749753703
C       -0.5610190245   -1.2449425669    1.5784803043
C        0.3792228793   -0.3859047353    1.0106978556
C        0.7130146629   -1.5305887979    3.4605647373
N        0.2074465880    2.4156526010   -0.8181272402
N       -0.4003678062   -1.8060766582    2.7866094873
N        0.1595380034    0.0834090379   -0.3267270642
N        0.1923725827    1.3155122528   -0.5040157254
O        0.8648158942   -2.0979292633    4.6854401076
H        2.3357317966    0.5049951630    1.2916472492
H        2.6284922843   -0.5295038336    3.5688833411
H       -1.4721031771   -1.4879921132    1.0361110057
H        0.0661936345   -2.6360661294    4.8369784822
14   
torsion grid (-45,)
C        1.4936052728   -0.0828062929    1.7263700888
C        1.7060044184   -0.6655198851    2.9674301147
C       -0.5922874633   -1.2727940199    1.5978556639
C        0.3070508567   -0.3707918519    1.0288930109
C        0.7226907400   -1.5435371985    3.4553842045
N        0.4746229588    2.3782336002   -0.8705762074
N       -0.3903748798   -1.8473341126    2.7930841028
N        0.0293225055    0.1095635433   -0.2886189068
N        0.2781308776    1.3073855138   -0.5170667455
O        0.9151587948   -2.1248920943    4.6683728214
H        2.2351879427    0.5887787671    1.3006427107
H        2.6004972123   -0.4726712847    3.5500411264
H       -1.5038986915   -1.5376462881    1.0667995673
H        0.1390078171   -2.6938809270    4.8236318623
14   
torsion grid (-30,)
C        1.4335291704   -0.0340535854    1.7410026760
C        1.6821619815   -0.6396424338    2.9645619999
C       -0.6185159750   -1.2837891863    1.6181078826
C        0.2469151581   -0.3448936961    1.0529960886
C        0.7336186600   -1.5572109332    3.4471798529
N        0.6981372031    2.2965459902   -0.9459956053
N       -0.3814731306   -1.8778491461    2.7959359703
N       -0.0902393937    0.1620170864   -0.2354232513
N        0.3483306679    1.2856395548   -0.5372610130
O        0.9620117695   -2.1602105945    4.6435598065
H        2.1487736508    0.6715483042    1.3251774596
H        2.5789732299   -0.4315927403    3.5383338892
H       -1.5319706093   -1.5604436703    1.0963184514
H        0.2044659795   -2.7539774801    4.7977492064
14   
torsion grid (-15,)
C        1.3813615352    0.0162050174    1.7660366571
C        1.6621999020   -0.6169832904    2.9686871037
C       -0.6388991181   -1.2829671412    1.6346685370
C        0.1981939604   -0.3116213430    1.0797621044
C        0.7445412613   -1.5714667553    3.4380876799
N        0.8804042280    2.1803749948   -1.0391961121
N       -0.3722449214   -1.9002134373    2.7934007311
N       -0.1911262504    0.2347082240   -0.1743604770
N        0.4045611416    1.2529805747   -0.5642305564
O        1.0047951064   -2.2019006548    4.6138867062
H        2.0718096453    0.7549009241    1.3662719258
H        2.5592876568   -0.3984355403    3.5380881504
H       -1.5537210813   -1.5662122560    1.1188233018
H        0.2635552961   -2.8172818471    4.7623176621
14   
torsion grid (0,)
C        1.3417159749    0.0651737426    1.7990269745
C        1.6480078078   -0.5984667154    2.9788815201
C       -0.6524767827   -1.2729870482    1.6467896724
C        0.1638227308   -0.2741092263    1.1090480488
C        0.7550714700   -1.5857396779    3.4273409188
N        1.0119836443    2.0404717080   -1.1464507938
N       -0.3623776818   -1.9168738946    2.7849125106
N       -0.2707411338    0.3223409266   -0.1053579147
N        0.4443383370    1.2118103196   -0.5956198483
O        1.0398402239   -2.2453844281    4.5812922747
H        2.0092442259    0.8354212158    1.4205469577
H        2.5434955225   -0.3748055973    3.5488233043
H       -1.5692159416   -1.5557690836    1.1340677122
H        0.3120099649   -2.8789947716    4.7189420766
14   
torsion grid (15,)
C        1.3099311218    0.1145107316    1.8401462715
C        1.6364026998   -0.5819822582    2.9953463620
C       -0.6589772232   -1.2551475035    1.6551959197
C        0.1396348614   -0.2307573524    1.1404581967
C        0.7650634622   -1.6002414608    3.4165461180
N        1.1019621516    1.8771665917   -1.2671430300
N       -0.3513915222   -1.9291385215    2.7713856492
N       -0.3278697470    0.4231263609   -0.0329600161
N        0.4703089839    1.1635091335   -0.6317116074
O        1.0693579767   -2.2916569777    4.5466026500
H        1.9554346934    0.9150847161    1.4871535133
H        2.5284747997   -0.3568368125    3.5700314299
H       -1.5768228202   -1.5340088839    1.1423386669
H        0.3532089241   -2.9415402940    4.6688532902
14   
torsion grid (30,)
C        1.2877593440    0.1661602895    1.8918950883
C        1.6282811582   -0.5665123287    3.0201404623
C       -0.6585444645   -1.2286068564    1.6587941755
C        0.1265724591   -0.1789494576    1.1774082224
C        0.7739752803   -1.6137756850    3.4047496306
N        1.1428828286    1.6884117660   -1.4024854024
N       -0.3395476389   -1.9360138576    2.7515601333
N       -0.3600460509    0.5341526397    0.0437294219
N        0.4803111292    1.1064497555   -0.6719553237
O        1.0920820492   -2.3409415628    4.5079987859
H        1.9144387495    0.9936781121    1.5680953267
H        2.5152294485   -0.3453735087    3.6042505069
H       -1.5743610801   -1.5015448159    1.1391900408
H        0.3856851499   -3.0050470205    4.6088723455
14   
torsion grid (45,)
C        1.2761870894    0.2158596184    1.9512747499
C        1.6241727200   -0.5535187009    3.0521272958
C       -0.6485500054   -1.1950804319    1.6558615756
C        0.1257084889   -0.1211188725    1.2162815724
C        0.7825255636   -1.6266390185    3.3926909316
N        1.1276585164    1.4832726232   -1.5430190303
N       -0.3244119959   -1.9387158386    2.7241260258
N       -0.3657082324    0.6532287069    0.1196969535
N        0.4707034061    1.0445239402   -0.7146340462
O        1.1066843955   -2.3898453082    4.4691226956
H        1.8870611764    1.0671972240    1.6609686928
H        2.5043891387   -0.3414337229    3.6496286897
H       -1.5604213850   -1.4593086568    1.1249692526
H        0.4087194857   -3.0663340929    4.5431480550
14   
torsion grid (60,)
C        1.2755748060    0.2670983625    2.0196713223
C        1.6204470984   -0.5394143552    3.0948970457
C       -0.6244169594   -1.1579960807    1.6431315481
C        0.1410049728   -0.0583523393    1.2568023809
C        0.7897608049   -1.6367310085    3.3811491746
N        1.0486619969    1.2615054625   -1.6856715522
N       -0.3039113456   -1.9386366033    2.6864160390
N       -0.3394913992    0.7703749317    0.1891904534
N        0.4405088949    0.9759921861   -0.7595020295
O        1.1100895976   -2.4360353476    4.4317905721
H        1.8740415370    1.1393075063    1.7689722264
H        2.4887379411   -0.3383235588    3.7132673893
H       -1.5267548411   -1.4127243002    1.0915635630
H        0.4204652576   -3.1239773861    4.4705652808
14   
torsion grid (75,)
C        1.1789219301   -0.2597089032    1.4991294700
C        1.6449030613   -0.7552412429    2.7088521421
C       -0.9300520311   -1.3229239463    1.9492574695
C       -0.1312214040   -0.5646905465    1.0950467004
C        0.7603448357   -1.5275501093    3.4817143496
N       -0.0508902721   -0.8205234219   -2.2465717265
N       -0.4912883351   -1.8020191543    3.1238033886
N       -0.7057450018   -0.0108569992   -0.1022403386
N       -0.3163916274   -0.4889970972   -1.1846001603
O        1.1981303229   -2.0198485411    4.6693996985
H        1.8143421128    0.3581263955    0.8701438376
H        2.6488567236   -0.5556201935    3.0680102494
H       -1.9592874072   -1.5471169120    1.6772089348
H        0.4496943517   -2.5134716815    5.0522485703
14   
torsion grid (90,)
C        1.2194977450   -0.1987852764    1.5433334501
C        1.6540625984   -0.7249167252    2.7521666263
C       -0.8858822297   -1.3043634746    1.8959528530
C       -0.0746042007   -0.5037429855    1.0936288660
C        0.7593377220   -1.5349696144    3.4725662560
N       -0.2859124681   -1.0153851049   -2.2128017146
N       -0.4758883548   -1.8175616605    3.0663657298
N       -0.5963497521    0.0767827955   -0.1171967842
N       -0.3939152059   -0.5538225151   -1.1720213562
O        1.1682332371   -2.0595100735    4.6565831407
H        1.8638876930    0.4436299926    0.9495573255
H        2.6444391743   -0.5254126381    3.1471565060
H       -1.9031837786   -1.5355210299    1.5863363016
H        0.4165950795   -2.5768640432    4.9997753854
14   
torsion grid (105,)
C        1.2612890045   -0.1507336540    1.5836470777
C        1.6621002129   -0.6922945831    2.7972530892
C       -0.8334812787   -1.3030165630    1.8339240211
C       -0.0115392792   -0.4636716865    1.0827848540
C        0.7578230100   -1.5357402454    3.4654896850
N       -0.5477506918   -1.1524640335   -2.1535528457
N       -0.4545132227   -1.8358260790    3.0059821827
N       -0.4725677559    0.1294924791   -0.1455499621
N       -0.4810094690   -0.6032043335   -1.1525535597
O        1.1329353471   -2.0778205232    4.6529439963
H        1.9145233490    0.5116164735    1.0228556638
H        2.6346693095   -0.4855015545    3.2308927553
H       -1.8333586678   -1.5512350394    1.4823114940
H        0.3811973915   -2.6200430109    4.9549741336
14   
torsion grid (120,)
C        1.3047752819   -0.1178822100    1.6153260293
C        1.6659932100   -0.6629273947    2.8392539425
C       -0.7761491056   -1.3143682995    1.7696368279
C        0.0571951266   -0.4467674561    1.0630920369
C        0.7533155308   -1.5321825961    3.4615168912
N       -0.8187122090   -1.2225531626   -2.0764412455
N       -0.4321407677   -1.8532689155    2.9493971842
N       -0.3374828981    0.1447309165   -0.1844661581
N       -0.5690905397   -0.6340214906   -1.1276336934
O        1.0918571095   -2.0800428695    4.6575295197
H        1.9675682304    0.5585680779    1.0836181690
H        2.6174989124   -0.4443423390    3.3120337812
H       -1.7555078838   -1.5826174783    1.3762268653
H        0.3411972617   -2.6427671358    4.9223124351
14   
torsion grid (135,)
C        1.3450067313   -0.1027222144    1.6368901387
C        1.6655814973   -0.6376850556    2.8759006742
C       -0.7137937478   -1.3437755246    1.7076219217
C        0.1273738210   -0.4561848692    1.0339651044
C        0.7472710539   -1.5253344834    3.4632003197
N       -1.0835408032   -1.2161364445   -1.9956404861
N       -0.4074889102   -1.8733097062    2.9016639186
N       -0.2015827033    0.1230413164   -0.2321657161
N       -0.6536566604   -0.6402037717   -1.1049381872
O        1.0472411011   -2.0632766107    4.6743950578
H        2.0164265875    0.5836224906    1.1293739461
H        2.5924977853   -0.3984757616    3.3860039116
H       -1.6694014243   -1.6385561154    1.2760203282
H        0.2983829309   -2.6414456029    4.9091116539
14   
torsion grid (150,)
C        1.3780652623   -0.1001681457    1.6496015657
C        1.6603959248   -0.6132574049    2.9062783123
C       -0.6505726720   -1.3918321612    1.6515005487
C        0.1947007514   -0.4899920448    1.0004991231
C        0.7400401399   -1.5158992628    3.4676213488
N       -1.3224321141   -1.1403921478   -1.9145881732
N       -0.3811884338   -1.8985632870    2.8639623603
N       -0.0741598175    0.0684476566   -0.2834457275
N       -0.7285927229   -0.6228954432   -1.0837985195
O        1.0023797325   -2.0318919109    4.6972911622
H        2.0531246696    0.5960812619    1.1608013740
H        2.5598405273   -0.3451741471    3.4500865449
H       -1.5800126136   -1.7191380804    1.1873959239
H        0.2587286255   -2.6257672360    4.9081967417
14   
torsion grid (165,)
C        1.4034453218   -0.1090879220    1.6532897291
C        1.6507571709   -0.5906704745    2.9288885039
C       -0.5910237684   -1.4532310727    1.6026243870
C        0.2565993514   -0.5426691759    0.9657337888
C        0.7320942669   -1.5045974412    3.4746835979
N       -1.5266306284   -1.0074686442   -1.8330049876
N       -0.3551394892   -1.9261987927    2.8360359550
N        0.0404746020   -0.0145696369   -0.3367962794
N       -0.7908391508   -0.5865178546   -1.0632869067
O        0.9599493123   -1.9890410646    4.7242934497
H        2.0783592963    0.5959583484    1.1770364525
H        2.5211870797   -0.2875126358    3.5006884555
H       -1.4926444611   -1.8174937331    1.1120814616
H        0.2237283561   -2.5973422534    4.9191349782
14   
torsion grid (180,)
C        1.4206922061   -0.1245013343    1.6490104970
C        1.6370109494   -0.5685542527    2.9434165812
C       -0.5335532529   -1.5244274898    1.5634980513
C        0.3117151159   -0.6075347134    0.9321134010
C        0.7230079081   -1.4923774706    3.4806410235
N       -1.6898893015   -0.8322726354   -1.7467406432
N       -0.3299862558   -1.9586297287    2.8168114004
N        0.1358792294   -0.1196983709   -0.3907105982
N       -0.8394986551   -0.5360373065   -1.0394586226
O        0.9193573804   -1.9391110479    4.7495219565
H        2.0915648901    0.5886866984    1.1792162090
H        2.4775979850   -0.2263369370    3.5374225769
H       -1.4058120467   -1.9285077798    1.0517267725
H        0.1922311069   -2.5611399846    4.9349339802
