18   
torsion grid (-165,)
C        0.6574152979   -1.4961929133   -3.1172454002
C       -1.6045278868    0.6224254059   -0.8972257416
C       -0.7653793249   -0.2368685139    0.0373940132
C       -0.9201107816   -0.6089593042   -1.4217763130
C        1.2555596834   -3.8703669928   -3.1070201778
N        0.1749456284   -0.4321186300   -2.3518828045
N        0.5692135100   -2.7317571000   -2.5057731717
O        1.1275849363   -1.3284037656   -4.2416314002
H       -2.6853710690    0.6026591008   -0.8003460665
H       -1.1917409374    1.5862280651   -1.1827718952
H        0.1996466140    0.1598259652    0.3375372368
H       -1.2738656597   -0.8401746263    0.7844534803
H       -1.5677547721   -1.4539896380   -1.6469321309
H        0.8977003861   -4.7885696367   -2.6340613078
H        1.0205363658   -3.9034006672   -4.1713305556
H        2.3460263892   -3.8080457646   -3.0001534486
H        0.0894044154    0.3845234183   -2.9476737600
H        0.5012800596   -2.7237276523   -1.4953314641
18   
torsion grid (-150,)
C        0.7135102733   -1.5439205779   -3.0615808459
C       -1.6631295248    0.5637064177   -0.9966405864
C       -0.7796269837   -0.0687150375    0.0712623656
C       -0.8326944885   -0.6481889372   -1.3236030492
C        1.1880491057   -3.9380396383   -3.2176869792
N        0.2825654367   -0.5052027773   -2.2379199269
N        0.5642732927   -2.8122311838   -2.5284985625
O        1.1984638604   -1.3322703719   -4.1726657341
H       -2.7400727842    0.4453257481   -0.9277137281
H       -1.3410120633    1.5197007640   -1.4018550557
H        0.1262218151    0.4651142267    0.3425411834
H       -1.2541133188   -0.6146863030    0.8821746468
H       -1.3821484843   -1.5761376716   -1.4546761832
H        0.8012840438   -4.8686092703   -2.7941527738
H        0.9276237395   -3.8935130474   -4.2755421010
H        2.2823503925   -3.9280410981   -3.1355697000
H        0.2831153086    0.3567752944   -2.7722707215
H        0.5431237745   -2.8649708167   -1.5174360338
18   
torsion grid (-135,)
C        0.9294629566   -1.6248572846   -2.7502727100
C       -1.9299124595    0.0898645012   -1.0497713146
C       -0.7739667994    0.7155691131   -0.2997423382
C       -0.5633486855   -0.5693722088   -1.0633471798
C        0.7735953736   -4.0198245531   -3.2285521973
N        0.2598494547   -0.5051073504   -2.2553085318
N        0.2754962950   -2.8268414755   -2.5511399229
O        2.0129891644   -1.5318808494   -3.3259415535
H       -2.7279124675   -0.3765831745   -0.4781366860
H       -2.2421135182    0.5675597144   -1.9734801466
H       -0.3409075380    1.6214456381   -0.7163538430
H       -0.7667394078    0.6730480089    0.7850542291
H       -0.4268311976   -1.4693076073   -0.4700634471
H        0.5741358203   -4.0051175597   -4.3076745858
H        1.8525025262   -4.0828754619   -3.0843177487
H        0.3021635867   -4.9009125520   -2.7853606388
H        0.8933753822    0.2864887483   -2.2832985421
H       -0.7273405301   -2.7684166968   -2.4227978473
18   
torsion grid (-120,)
C        0.9953206706   -1.5819287926   -2.6951626937
C       -1.8984633576   -0.0827401472   -1.0709296263
C       -0.8769540729    0.7729435992   -0.3580070809
C       -0.4500495328   -0.5339782349   -0.9781391623
C        0.6652534630   -3.9364670539   -3.2833182404
N        0.3966044616   -0.4432900421   -2.1481313252
N        0.2649044960   -2.7437381493   -2.5451388194
O        2.0823997590   -1.5332921906   -3.2689303458
H       -2.6425786995   -0.6047908144   -0.4753134997
H       -2.2361314621    0.2523215568   -2.0468004940
H       -0.5579826653    1.6859499616   -0.8530888451
H       -0.9105786663    0.8331250162    0.7252852909
H       -0.2183621860   -1.3489353510   -0.2951282957
H        0.4414311398   -3.8619660941   -4.3551981827
H        1.7406250939   -4.0773589638   -3.1702297744
H        0.1458370618   -4.8026860556   -2.8652572379
H        1.0888606591    0.2973867056   -2.1049115540
H       -0.7244717124   -2.6288130795   -2.3619050227
18   
torsion grid (-105,)
C        1.0551120918   -1.6397593267   -2.6620940097
C       -1.8119272779   -0.2612185056   -1.1395536236
C       -0.9270453922    0.7646970582   -0.4699027703
C       -0.3320085552   -0.5422135408   -0.9289060297
C        0.5417178637   -3.9487514388   -3.3041397394
N        0.5529049948   -0.4795339998   -2.0655891702
N        0.2537259010   -2.7529743127   -2.5214928695
O        2.1267770118   -1.6464831371   -3.2666034394
H       -2.5300464368   -0.8011963451   -0.5285814501
H       -2.1255187468   -0.0571968126   -2.1587433110
H       -0.6727902004    1.6520855452   -1.0418742144
H       -1.0334079522    0.9242609561    0.5984421923
H       -0.0689229949   -1.2624995079   -0.1547043772
H        0.2497821737   -3.8418992166   -4.3568675390
H        1.6138369342   -4.1441660122   -3.2671399044
H        0.0084281922   -4.7969125353   -2.8667592440
H        1.2924626050    0.2117112088   -1.9956832371
H       -0.7110132416   -2.5872648573   -2.2631892338
18   
torsion grid (-90,)
C        1.0700884941   -1.6575398183   -2.6149064238
C       -1.7471811221   -0.3837249577   -1.1585312951
C       -0.9868930838    0.7723555682   -0.5490595296
C       -0.2631717628   -0.5150193306   -0.8518187795
C        0.4100213603   -3.9088494907   -3.3247797376
N        0.6648096613   -0.5005952528   -1.9483340309
N        0.2254489235   -2.7376904314   -2.4769600026
O        2.1099030211   -1.6907228151   -3.2731291762
H       -2.4488702833   -0.9281587752   -0.5329061082
H       -2.0238470398   -0.2959240328   -2.2048495314
H       -0.7724756520    1.6198541775   -1.1926642387
H       -1.1646188915    1.0187520173    0.4929834429
H        0.0027759830   -1.1404186755    0.0012263917
H        0.0459728979   -3.7482013408   -4.3479282930
H        1.4737912058   -4.1427372385   -3.3754217015
H       -0.1219019400   -4.7555483160   -2.8827628132
H        1.4288626409    0.1627429915   -1.8829899219
H       -0.7078092986   -2.5495827663   -2.1346980346
18   
torsion grid (-75,)
C        1.1089612292   -1.6703036088   -2.5327336861
C       -1.6875952767   -0.4651083591   -1.1775512959
C       -1.0270155853    0.7815278555   -0.6311638718
C       -0.2238690929   -0.4874886985   -0.7650334985
C        0.3663320179   -3.8693107343   -3.3230825208
N        0.7782747128   -0.5449129422   -1.7860938173
N        0.2487908310   -2.7396054193   -2.4106066622
O        2.1167536978   -1.6932024296   -3.2413330244
H       -2.4022192554   -0.9893410706   -0.5495401291
H       -1.9022131108   -0.4790978550   -2.2418148446
H       -0.8109066530    1.5764948652   -1.3378889627
H       -1.2872530641    1.1110129927    0.3698656930
H       -0.0007927549   -1.0193061587    0.1613631280
H       -0.0680551150   -3.6601412107   -4.3095697263
H        1.4224868784   -4.1033252002   -3.4593673012
H       -0.1386510230   -4.7347660489   -2.8855252800
H        1.5335101716    0.1287357192   -1.7517652311
H       -0.6523683773   -2.5672985221   -1.9864746813
18   
torsion grid (-60,)
C        1.1228041157   -1.6947994018   -2.4945527403
C       -1.6330158637   -0.5074015102   -1.2050915967
C       -1.0052461188    0.7752240071   -0.7063895351
C       -0.1974270986   -0.4992728427   -0.7005130750
C        0.3261352904   -3.8539680390   -3.3451744585
N        0.8778232945   -0.6361257334   -1.6331494639
N        0.2824152678   -2.7785434989   -2.3641500405
O        2.0622208732   -1.6631803947   -3.2926642819
H       -2.3867201370   -0.9888397419   -0.5886122380
H       -1.7824262504   -0.5955173894   -2.2767111885
H       -0.7442003116    1.5196325225   -1.4522603997
H       -1.3253811081    1.1745691881    0.2509821214
H       -0.0408461652   -0.9601560693    0.2757195085
H       -0.2076416638   -3.6018568551   -4.2711226718
H        1.3670947454   -4.0580388436   -3.5974157539
H       -0.1191614534   -4.7525817097   -2.9094523376
H        1.5608494229    0.1060884067   -1.7095984232
H       -0.5683341590   -2.6541047376   -1.8335543701
18   
torsion grid (-45,)
C        0.9850672690   -1.4353036279   -2.5697368469
C       -1.8715164057   -0.5199970491   -1.4647277354
C       -1.3543742951    0.7284239844   -0.7881719898
C       -0.5340493959   -0.5415239218   -0.7466954171
C        0.4892821899   -3.5417391730   -3.7168760660
N        0.6896171534   -0.6107741966   -1.4926501011
N        0.1189184261   -2.4874525025   -2.7809586314
O        1.9694081873   -1.2247917705   -3.2814986940
H       -2.6983247413   -1.0534990558   -1.0048526124
H       -1.8498926853   -0.5470224650   -2.5484849794
H       -0.9929387046    1.5254863088   -1.4309554149
H       -1.8224444744    1.0580282766    0.1345107854
H       -0.5199979652   -1.0613646689    0.2118121005
H       -0.4012599501   -4.1264478691   -3.9624476742
H        0.8789615183   -3.0860745719   -4.6276681727
H        1.2603535898   -4.2108393474   -3.3132032674
H        1.3255027600    0.1748887193   -1.4349329554
H       -0.5052130125   -2.7330184403   -2.0247694709
18   
torsion grid (-30,)
C        0.9921563648   -1.4340362986   -2.5008064766
C       -1.8418364656   -0.5686541523   -1.4290066671
C       -1.3372644046    0.7484348088   -0.8834482850
C       -0.5254769123   -0.5134708193   -0.6799646253
C        0.4818865017   -3.4737312567   -3.7544037633
N        0.7340871966   -0.6819167220   -1.3578290845
N        0.1319302430   -2.4841696963   -2.7424699318
O        1.9517117968   -1.1742996843   -3.2294292967
H       -2.6792422203   -1.0506590763   -0.9329464115
H       -1.8006577258   -0.7108042498   -2.5027489849
H       -0.9555339451    1.4643500781   -1.6053537651
H       -1.8253308401    1.1837902557   -0.0164443326
H       -0.5471612264   -0.9232270012    0.3294788262
H       -0.4036576559   -4.0716924799   -3.9855537431
H        0.8089446632   -2.9574244076   -4.6575123325
H        1.2926515862   -4.1386471642   -3.4296521534
H        1.3711158053    0.1050690427   -1.3097500976
H       -0.4394933808   -2.7941583631   -1.9680873181
18   
torsion grid (-15,)
C        1.0119406999   -1.4196241339   -2.4325318902
C       -1.8218828365   -0.6066010368   -1.3539790065
C       -1.3092809860    0.7693840493   -0.9835754756
C       -0.5075323839   -0.4634055453   -0.6188490677
C        0.4956612256   -3.3828339587   -3.7969088102
N        0.7679732503   -0.7369188779   -1.2403720376
N        0.1469236157   -2.4531497738   -2.7281709863
O        1.9714463584   -1.1267248596   -3.1479164438
H       -2.6590753830   -1.0173198760   -0.7971955821
H       -1.7915391041   -0.8775833140   -2.4025571800
H       -0.9231338875    1.3798385681   -1.7945592722
H       -1.7948285056    1.3189611452   -0.1822866426
H       -0.5387265974   -0.7425637312    0.4332036657
H       -0.3810450514   -3.9908617696   -4.0351736741
H        0.7863529121   -2.8151948724   -4.6814831964
H        1.3308138008   -4.0413227450   -3.5257073779
H        1.4373500242    0.0213775740   -1.1585826800
H       -0.3860773676   -2.8245009943   -1.9527753603
18   
torsion grid (0,)
C        1.0077109115   -1.4283480741   -2.3806054188
C       -1.8375480783   -0.6627470780   -1.2798790398
C       -1.3047810634    0.7468360282   -1.1047052881
C       -0.5157556991   -0.4380389619   -0.5850405189
C        0.4855532862   -3.3077887425   -3.8548207125
N        0.7660802920   -0.8148404618   -1.1472036710
N        0.1417584263   -2.4447943265   -2.7294759714
O        1.9693386363   -1.1020610808   -3.0777966565
H       -2.6710024680   -0.9842317625   -0.6620822450
H       -1.8309600952   -1.0639234723   -2.2860409703
H       -0.9205492919    1.2338947038   -1.9962230135
H       -1.7768482144    1.4083938377   -0.3838275439
H       -0.5418512065   -0.5766000131    0.4938906223
H       -0.3871439770   -3.9129484439   -4.1141029659
H        0.7551116188   -2.6871744009   -4.7100376338
H        1.3332735947   -3.9687817116   -3.6338425086
H        1.4656092976   -0.0882096725   -1.0264589463
H       -0.3634626045   -2.8723367168   -1.9641703676
18   
torsion grid (15,)
C        1.0320574630   -1.4271372035   -2.3275477767
C       -1.8461959621   -0.7196214461   -1.1992045574
C       -1.2963306550    0.6975989653   -1.2275532482
C       -0.5118031310   -0.4159572790   -0.5659012126
C        0.5138227790   -3.2044331692   -3.9223766541
N        0.7711778783   -0.8845195596   -1.0619801244
N        0.1595483990   -2.4113060095   -2.7487568635
O        2.0116180895   -1.0766998607   -2.9859209874
H       -2.6696495773   -0.9441639825   -0.5274217120
H       -1.8711387655   -1.2418245000   -2.1476640981
H       -0.9267348361    1.0513337662   -2.1857529915
H       -1.7509868877    1.4584077848   -0.5991853856
H       -0.5229914688   -0.4112463434    0.5214723190
H       -0.3509757971   -3.8062326234   -4.2136322994
H        0.7719197269   -2.5329082668   -4.7419576897
H        1.3717720596   -3.8637339707   -3.7401757008
H        1.4982184734   -0.1964417369   -0.8848121388
H       -0.3294837948   -2.8963960620   -2.0072184841
18   
torsion grid (30,)
C        1.0462821791   -1.4763763852   -2.2659157184
C       -1.8534596689   -0.7529190883   -1.0957808612
C       -1.2645816654    0.6271729437   -1.3600069126
C       -0.4929005045   -0.3959713899   -0.5563131635
C        0.4831610191   -3.1425365257   -3.9613908002
N        0.7718349730   -0.9798732275   -0.9812952230
N        0.1432542683   -2.4032056524   -2.7485258691
O        2.0540115179   -1.1390416182   -2.8863069702
H       -2.6605229332   -0.8459940758   -0.3746990818
H       -1.9315676162   -1.4041924168   -1.9574232686
H       -0.9201459263    0.8131092588   -2.3733372674
H       -1.6788773958    1.4918722305   -0.8490308872
H       -0.4733141056   -0.2283650288    0.5173603994
H       -0.3941391009   -3.7088402615   -4.2843307386
H        0.7579822429   -2.4357722290   -4.7452057692
H        1.3259474271   -3.8287700863   -3.8118017937
H        1.5336734989   -0.3445498040   -0.7571271569
H       -0.3570299226   -2.9175122532   -2.0347034854
18   
torsion grid (45,)
C        0.2136139039   -1.2857332422   -3.0846101002
C       -0.5653865986    0.4916286319   -0.4956121751
C       -0.7587582949   -0.9501361504   -0.0594289948
C       -1.4170420210   -0.4509424308   -1.3219271946
C        1.9785618683   -2.9591637464   -2.8458200165
N       -1.0632449919   -0.8698103915   -2.6721225713
N        0.7690722221   -2.3114061672   -2.3462452232
O        0.7644721882   -0.7970274522   -4.0706386324
H       -1.0521518858    1.2875059558    0.0614244993
H        0.4101323784    0.7450795968   -0.9007713895
H        0.1125420037   -1.5891078956   -0.1306457733
H       -1.4091929290   -1.1544656833    0.7863609060
H       -2.4920378783   -0.3130391870   -1.2460973116
H        1.7961394156   -3.5414771028   -3.7575983495
H        2.7229000942   -2.1959754698   -3.0757236521
H        2.3720312543   -3.6173667108   -2.0669212214
H       -1.3495378975   -0.1533998003   -3.3349742348
H        0.0994593270   -2.9073509807   -1.8765383595
18   
torsion grid (60,)
C        0.2779896674   -1.2550192987   -3.0758806926
C       -0.7086600517    0.5621467729   -0.4688857952
C       -0.6473003069   -0.8999478175   -0.0817684981
C       -1.4072492926   -0.4829299412   -1.3198209013
C        1.9338714107   -3.0417993815   -2.8803878686
N       -0.9796941905   -0.7834004938   -2.6761979648
N        0.7696321146   -2.3296888130   -2.3615744748
O        0.8688325607   -0.7671907190   -4.0397073513
H       -1.3155997055    1.2441451200    0.1203753359
H        0.1978052337    0.9944300082   -0.8828521938
H        0.3103733262   -1.3922325545   -0.1969782338
H       -1.2380211668   -1.2367228473    0.7653904599
H       -2.4896718896   -0.5260758897   -1.2297324450
H        1.7114571916   -3.5948265036   -3.8016153124
H        2.7231040291   -2.3221446139   -3.1005835145
H        2.2892652477   -3.7378311045   -2.1161166701
H       -1.2156175620   -0.0203713749   -3.3051459660
H        0.0688775573   -2.8900214495   -1.8932049792
18   
torsion grid (75,)
C        0.3479638227   -1.2788558464   -3.0619790502
C       -0.8299501158    0.6039666906   -0.4620466117
C       -0.5578943453   -0.8363962527   -0.0994532760
C       -1.3733621330   -0.5151176887   -1.3339743866
C        1.8719724127   -3.1797119691   -2.8494428269
N       -0.8751714689   -0.7200890898   -2.6795824680
N        0.7597038183   -2.3825698780   -2.3432261509
O        0.9831946497   -0.8291178219   -4.0168680665
H       -1.5318226062    1.1782550517    0.1362986907
H        0.0024674079    1.1716693724   -0.8674675396
H        0.4557188616   -1.1948718463   -0.2307725958
H       -1.0909762480   -1.2676380636    0.7430472001
H       -2.4402526741   -0.7091406488   -1.2485006298
H        1.6062076243   -3.7477917216   -3.7500584095
H        2.6999533166   -2.5160306746   -3.1007963708
H        2.1943347881   -3.8720156116   -2.0672045391
H       -1.0465292267    0.0804063610   -3.2808376882
H        0.0331478110   -2.8773313980   -1.8422203699
18   
torsion grid (90,)
C        0.4087349917   -1.2543299350   -3.0566028101
C       -0.9526232391    0.6148763122   -0.4185167786
C       -0.4743906238   -0.7767118802   -0.0951762529
C       -1.3278943626   -0.5427653035   -1.3278096064
C        1.8188601073   -3.2446116155   -2.8672378665
N       -0.7693623070   -0.6243626189   -2.6572022284
N        0.7675521324   -2.3796944081   -2.3434599755
O        1.0601858761   -0.8348911502   -4.0148199767
H       -1.7350757145    1.0598390427    0.1897306367
H       -0.2155050458    1.3136176303   -0.8029830400
H        0.5772713288   -0.9916398648   -0.2422820137
H       -0.9375099306   -1.3035984282    0.7342002947
H       -2.3582449104   -0.8872612421   -1.2595459371
H        1.4972685642   -3.8092053532   -3.7518427069
H        2.6751982916   -2.6316636895   -3.1503195677
H        2.1235946818   -3.9436593352   -2.0839074447
H       -0.9032011305    0.2084341483   -3.2209073424
H        0.0334598133   -2.8221572142   -1.8063218582
18   
torsion grid (105,)
C        0.5121248195   -1.2905843468   -3.0482442030
C       -1.0494634414    0.5773438470   -0.4070178533
C       -0.4051591572   -0.7443379019   -0.0797172443
C       -1.2406901950   -0.6031601143   -1.3407067651
C        1.8039621436   -3.3597277660   -2.8448009103
N       -0.6108842705   -0.5828705576   -2.6340094086
N        0.8180225581   -2.4220558359   -2.3207011757
O        1.1739858622   -0.9207378119   -4.0200509201
H       -1.9047481052    0.9058236586    0.1762142626
H       -0.3976123274    1.3727645504   -0.7558082914
H        0.6688836336   -0.8237844167   -0.2026821824
H       -0.8191696628   -1.3368961830    0.7311100861
H       -2.2229249466   -1.0739445205   -1.3160635996
H        1.4191750987   -3.9472177436   -3.6885350864
H        2.6747110102   -2.8015878485   -3.1901231344
H        2.1088791813   -4.0377429381   -2.0431972601
H       -0.7181404204    0.2665585187   -3.1758236711
H        0.0857156426   -2.7998884537   -1.7347011682
18   
torsion grid (120,)
C        0.5448526977   -1.2627190962   -3.0773108611
C       -1.1534010767    0.5769144314   -0.3929840859
C       -0.3955042428   -0.6818049853   -0.0577125047
C       -1.1882810776   -0.5947978868   -1.3524668240
C        1.7379513189   -3.3952936817   -2.8931022530
N       -0.4926059503   -0.4763687720   -2.5992844286
N        0.8317261823   -2.3948677826   -2.3441585332
O        1.1667425704   -0.9475968467   -4.0942807272
H       -2.0605416159    0.8046943757    0.1586755803
H       -0.5723517943    1.4413574568   -0.6995844436
H        0.6853307278   -0.6568612463   -0.1425977933
H       -0.7824984357   -1.3247907410    0.7276919440
H       -2.1215248515   -1.1581691479   -1.3838221212
H        1.2698304843   -4.0000280034   -3.6807976965
H        2.6039323340   -2.8907640318   -3.3226979544
H        2.0713695413   -4.0531054060   -2.0859547093
H       -0.6363545435    0.3546198670   -3.1586440889
H        0.1414945987   -2.7046780220   -1.6741805000
18   
torsion grid (135,)
C        0.5083954268   -1.6753754402   -3.2284753112
C       -1.1979827295    0.5908876618   -0.7986757620
C       -0.6392092949   -0.7190757398   -0.3018215840
C       -1.2050414834   -0.6130281571   -1.7125308667
C        1.4105392329   -3.8853103456   -2.6661428589
N       -0.2964060154   -0.6222860502   -2.8167522294
N        0.4447003334   -2.8150451833   -2.4564869781
O        1.2080610722   -1.5851416737   -4.2394109456
H       -2.1511968975    0.9325521310   -0.4071982035
H       -0.4858537456    1.3764109942   -1.0311598777
H        0.4400872371   -0.7868644812   -0.2057572016
H       -1.2079528307   -1.2797403428    0.4345578424
H       -2.1712893437   -1.0925186069   -1.8748057405
H        1.0199256813   -4.8078859386   -2.2281962475
H        1.5491791640   -4.0299473938   -3.7379153636
H        2.3894171298   -3.6626788232   -2.2211836577
H       -0.3290213141    0.1338639359   -3.4883914760
H        0.0134516850   -2.7399527669   -1.5457125359
18   
torsion grid (150,)
C        0.5193730317   -1.5822332372   -3.2101747039
C       -1.3069824718    0.6244560477   -0.7456712796
C       -0.6703633756   -0.6376787396   -0.2107857011
C       -1.1541507582   -0.5719643687   -1.6516204640
C        1.3603279508   -3.8393471725   -2.7611367012
N       -0.1744954383   -0.4892916516   -2.6954445386
N        0.4701960467   -2.7287068651   -2.4476206270
O        1.1249864790   -1.5096768364   -4.2801166037
H       -2.3077878342    0.8815545464   -0.4131582496
H       -0.6511880385    1.4688675435   -0.9328692295
H        0.4032424828   -0.6164162147   -0.0498393578
H       -1.2365387008   -1.2446799927    0.4899697122
H       -2.0628449023   -1.1312755132   -1.8791439709
H        0.9886945601   -4.7418592835   -2.2686628469
H        1.3626448366   -3.9968578914   -3.8401149512
H        2.3936412798   -3.6531044256   -2.4404439030
H       -0.2993459360    0.2349722704   -3.3930291630
H        0.1525498918   -2.6360586351   -1.4921441605
18   
torsion grid (165,)
C        0.5909309793   -1.5851989587   -3.1898200936
C       -1.3915957811    0.6101081255   -0.7945072316
C       -0.6775442738   -0.5549437041   -0.1384523044
C       -1.0541378683   -0.6104456614   -1.6085170620
C        1.3417673331   -3.8916803244   -2.8415041591
N       -0.0176563930   -0.4765050268   -2.5970914100
N        0.5312493683   -2.7455283963   -2.4485942554
O        1.1388102498   -1.5107096440   -4.2893509817
H       -2.4350710230    0.7827331497   -0.5510542406
H       -0.8073893614    1.5060982328   -0.9804030565
H        0.3749317775   -0.4200373622    0.0917464479
H       -1.2340380762   -1.1760562687    0.5577403147
H       -1.8861553573   -1.2647365629   -1.8713408511
H        0.9642265796   -4.7838312107   -2.3349816195
H        1.2570196164   -4.0309666194   -3.9196915212
H        2.4034485875   -3.7588932300   -2.5963031695
H       -0.1574564616    0.2558735283   -3.2847730445
H        0.3010811812   -2.6499607749   -1.4677741137
18   
torsion grid (180,)
C        0.6234141740   -1.5794865490   -3.1687784892
C       -1.4846338929    0.6130075569   -0.8618499886
C       -0.7039893211   -0.4142371007   -0.0598597541
C       -0.9768890061   -0.6314144126   -1.5356046476
C        1.2856869406   -3.9302775924   -2.9606528153
N        0.0901300573   -0.4775131768   -2.4949411124
N        0.5548043137   -2.7674506016   -2.4717192619
O        1.1168027608   -1.4782894028   -4.2914225504
H       -2.5537893735    0.7006600412   -0.6973634554
H       -0.9793369725    1.5463544409   -1.0926420063
H        0.3146123303   -0.1563514885    0.2132211425
H       -1.2413863562   -1.0256977889    0.6596494277
H       -1.7256731779   -1.3815749648   -1.7886105894
H        0.9041054929   -4.8251300497   -2.4619871100
H        1.1222764513   -4.0236778034   -4.0347323118
H        2.3662820314   -3.8512236357   -2.7850502614
H       -0.0347672343    0.2871820010   -3.1499936226
H        0.4070855740   -2.6984280201   -1.4725282535
