24   
torsion grid (-165,)
C       -0.1932514667    0.5259122565    0.8192551376
N        0.4254194872   -0.5196030614    1.6793600885
C        1.6461016182   -0.0269099886    2.3900352515
C        0.8649534816   -1.6649356232    0.7756466873
C       -0.5774060521   -0.9445658231    2.7754076706
C       -1.6486395281   -1.9466775894    2.3186936052
O       -1.1211258196   -3.1958558650    2.0213186141
P       -0.0787873071   -3.9195343585    3.3574687646
O       -0.0843529029   -5.3821964342    2.9898569764
O       -0.8096726465   -3.4053825308    4.5975059979
O        1.2615648841   -3.1509777248    3.1064279276
H       -1.1030489357    0.1163071418    0.3808671241
H       -0.4394624401    1.4023814002    1.4246546524
H        0.5049381696    0.8077960602    0.0277252652
H        2.0381862770   -0.8903949478    2.9376018368
H        2.3682897496    0.3441895691    1.6570878813
H        1.3602300823    0.7733349432    3.0767781662
H        1.2487484479   -2.4610281116    1.4439406081
H       -0.0018869794   -2.0349230990    0.2335405271
H        1.6144142347   -1.2435138943    0.0957883485
H        0.0043552235   -1.4907526821    3.5198297876
H       -0.9990840592   -0.0103043867    3.1637374909
H       -2.3514190819   -1.9842793180    3.1687353804
H       -2.2086321479   -1.5639130703    1.4422942659
24   
torsion grid (-150,)
C       -0.0516491980    0.2481867439    1.0957833670
N        0.0611533252   -0.9050241860    2.0307131142
C        1.2008248297   -0.7304259118    2.9939205245
C        0.3511362605   -2.1517302990    1.2120233830
C       -1.2327890968   -0.9944906183    2.8771157225
C       -2.3288510498   -1.9112922144    2.3155011110
O       -1.9863519173   -3.2546537766    2.3133162869
P       -1.2883018280   -3.8833229187    3.8891527595
O       -1.5576676743   -5.3627271298    3.7817922619
O       -2.0323827719   -3.0163026904    4.9081835424
O        0.1995923367   -3.4365836575    3.7157233254
H       -0.9365150111    0.1040769123    0.4733165981
H       -0.1502409671    1.1746626738    1.6662551549
H        0.8390417580    0.2972093620    0.4650827076
H        1.2051541056   -1.6524228809    3.5960070782
H        2.1276465500   -0.5973213078    2.4273153410
H        1.0040680262    0.1511101104    3.6090865473
H        0.4325702860   -2.9828247061    1.9328473412
H       -0.4720403884   -2.3197274278    0.5210681583
H        1.2823866370   -1.9512730102    0.6704986034
H       -0.9660438868   -1.4216760876    3.8444048779
H       -1.5818099863    0.0387874499    2.9849366406
H       -3.1944295610   -1.7014919129    2.9686510308
H       -2.6097787854   -1.5996903808    1.2895259185
24   
torsion grid (-135,)
C        0.0252627757    0.3404704966    1.1454779307
N        0.0467588465   -0.8829892206    1.9937965826
C        1.1713180721   -0.8000880960    2.9968929423
C        0.3068301935   -2.0904350964    1.1173144095
C       -1.2832535821   -0.9701105475    2.7917555335
C       -2.3157570607   -2.0019731427    2.3121746782
O       -1.9228306229   -3.3242791913    2.4076227387
P       -1.1319232800   -3.8231717382    3.9769522972
O       -1.4718474779   -5.2893568199    4.0562755377
O       -1.7502324034   -2.8267937040    4.9661945909
O        0.3481902504   -3.4709625904    3.6314949787
H       -0.8251304955    0.2814578038    0.4623078147
H       -0.0739576642    1.2222300113    1.7816115887
H        0.9531914425    0.4035166109    0.5719913341
H        1.1242514859   -1.7554020627    3.5562063202
H        2.1129017467   -0.6787959520    2.4515633261
H        0.9912012403    0.0659336588    3.6385052123
H        0.3759414666   -2.9566310910    1.7942057700
H       -0.5165526231   -2.1981739501    0.4130173087
H        1.2440873764   -1.8947667486    0.5855767758
H       -1.0438661737   -1.2287573443    3.8266388398
H       -1.7135895509    0.0367296619    2.7499448329
H       -3.1898981627   -1.7753077466    2.9508522347
H       -2.6153880390   -1.7829087921    1.2684657969
24   
torsion grid (-120,)
C        0.1371840181    0.4082182765    1.2825989685
N        0.0279002109   -0.8905027708    2.0029041710
C        1.1061868823   -0.9560542696    3.0657339016
C        0.2656296224   -2.0288927546    1.0369739507
C       -1.3600510699   -0.9564787877    2.7043353777
C       -2.3159572919   -2.0957641606    2.3037199377
O       -1.8634356971   -3.3885233209    2.4602330368
P       -0.9669461500   -3.8369588553    3.9832306935
O       -1.4694855768   -5.2285687505    4.2677868166
O       -1.3455250759   -2.6840555222    4.9289497949
O        0.4862486363   -3.7081130983    3.4427602876
H       -0.6394256267    0.4602871526    0.5154512741
H        0.0085822136    1.2259106905    1.9942709037
H        1.1213213030    0.4815473745    0.8136815848
H        1.0229417350   -1.9642200912    3.5266695425
H        2.0721389181   -0.8199541989    2.5682772821
H        0.9258084823   -0.1477859934    3.7774117252
H        0.3019307996   -2.9529082310    1.6345872552
H       -0.5450895238   -2.0441444198    0.3083496424
H        1.2199040253   -1.8308031396    0.5384709878
H       -1.1702029851   -1.0633100806    3.7768612850
H       -1.8483247677   -0.0004838456    2.4859499004
H       -3.1999602643   -1.8721678771    2.9343021084
H       -2.6375235900   -1.9553055166    1.2538532732
24   
torsion grid (-105,)
C        0.6345003233    0.1713703754    1.2027055757
N        0.0126109226   -0.8893357207    2.0448909832
C        0.8552278018   -1.0339861963    3.3026620425
C        0.0356042004   -2.2139674792    1.3228623883
C       -1.4236100246   -0.4256090188    2.4168287902
C       -2.5931968129   -1.4176073704    2.2205119293
O       -2.4794674052   -2.6921988756    2.7227413308
P       -1.8573074702   -2.9442361264    4.4130767149
O       -2.8297918796   -3.9369229317    4.9962948006
O       -1.8369283569   -1.5026367260    4.9539186409
O       -0.4390543678   -3.4620112154    4.0493300167
H        0.0713168531    0.2743828653    0.2715136981
H        0.6179145737    1.1149965613    1.7509311209
H        1.6671440716   -0.1046067087    0.9776753531
H        0.4549281903   -1.8980393955    3.8729941635
H        1.8847144555   -1.2158729466    2.9758049079
H        0.7873330434   -0.0997357828    3.8615328093
H       -0.2789830480   -2.9812522847    2.0447979994
H       -0.6382882308   -2.1579576115    0.4666581993
H        1.0628030300   -2.3819146970    0.9848514426
H       -1.3768159205   -0.1164215673    3.4601625326
H       -1.6261523277    0.4357996733    1.7686455239
H       -3.4364751835   -0.8486171505    2.6626651927
H       -2.8020534888   -1.4920894033    1.1363451629
24   
torsion grid (-90,)
C       -0.9021021002    0.6511524075    2.6762942715
N       -0.7386529211   -0.6579619710    1.9757960713
C        0.2704846061   -1.5171786339    2.7035491851
C       -0.2274172952   -0.3636324111    0.5790092421
C       -2.1186561953   -1.3444192575    1.9507234236
C       -2.3797095475   -2.3532717970    0.8155512059
O       -1.6596682053   -3.5169485546    0.9884483142
P       -0.2273371954   -3.8466392547   -0.0994089559
O       -0.4532598831   -5.2664266792   -0.5514024432
O        0.9210268060   -3.5785973303    0.8996056998
O       -0.3893832769   -2.7064489840   -1.1304345554
H       -1.5859307553    1.2851550747    2.1088729915
H       -1.3022908892    0.4784972206    3.6788805697
H        0.0727057855    1.1370868840    2.7516729890
H        0.4825155323   -2.4345739387    2.0848776500
H        1.1843570302   -0.9237412898    2.8053700603
H       -0.1391239432   -1.7456001882    3.6911662163
H       -0.1393961274   -1.2885424502   -0.0364291702
H       -0.9357703855    0.3238908049    0.1073783201
H        0.7439385002    0.1246994561    0.6934471824
H       -2.1583006650   -1.9372131816    2.8673070365
H       -2.8667468829   -0.5447352749    1.9559555896
H       -3.4681915059   -2.5498256663    0.9089709123
H       -2.2116599169   -1.9055787954   -0.1736555130
24   
torsion grid (-75,)
C       -0.4812500335    0.8176435409    2.3486273387
N       -0.5633182938   -0.5130839038    1.6753250856
C        0.3607760265   -1.4840497085    2.3848152166
C       -0.1181672628   -0.3542533534    0.2376898446
C       -2.0235193476   -0.9748818395    1.7604721078
C       -2.4317922793   -2.1347944538    0.8370369327
O       -1.7317991439   -3.2904217890    1.1087241825
P       -0.5221379115   -3.8924390935   -0.1407908858
O       -0.9939549392   -5.2906736292   -0.4494827633
O        0.7719197538   -3.7202824484    0.6808258903
O       -0.6863932654   -2.8065066293   -1.2298070690
H       -1.1125578898    1.5352932124    1.8204975031
H       -0.8178787666    0.7195706607    3.3835934674
H        0.5553531575    1.1595334054    2.3325383271
H        0.4691256278   -2.4256596088    1.7853839861
H        1.3320910463   -0.9866520844    2.4715964153
H       -0.0545846439   -1.6711454283    3.3779385057
H       -0.2148238664   -1.3143365061   -0.3234399574
H       -0.7485491855    0.4146584524   -0.2197238294
H        0.9222889313   -0.0198968461    0.2591130443
H       -2.1576932166   -1.2916471080    2.7986432905
H       -2.6373566488   -0.0888933841    1.5573746201
H       -3.5148726254   -2.2561168737    1.0519478496
H       -2.3375811681   -1.8383896214   -0.2169552361
24   
torsion grid (-60,)
C       -0.4400919143    0.9020607756    2.3281802054
N       -0.6083046096   -0.4715932464    1.7664349676
C        0.2447329856   -1.4177086406    2.5993913870
C       -0.1408902331   -0.5021282414    0.3311379723
C       -2.0939518840   -0.8196396270    1.8676565986
C       -2.5465513280   -2.1470353069    1.2313347194
O       -1.8425798576   -3.2411504007    1.6819831975
P       -0.7180350288   -4.0808919886    0.4802223916
O       -1.3010348488   -5.4652031140    0.3470140516
O        0.6070946014   -3.9077314225    1.2462297418
O       -0.8434185740   -3.1213988266   -0.7279446805
H       -1.0556006032    1.6082484379    1.7655654083
H       -0.7423297136    0.9007609101    3.3774626305
H        0.6099580003    1.1896234196    2.2502315152
H        0.3632738673   -2.4082504631    2.0943894912
H        1.2193762247   -0.9323345151    2.7160066426
H       -0.2396822064   -1.5303256821    3.5713783471
H       -0.3180102381   -1.5144702519   -0.1107608208
H       -0.6979537130    0.2651745067   -0.2160755645
H        0.9255825078   -0.2628003105    0.3317796937
H       -2.3212329426   -0.7687495104    2.9373776772
H       -2.6213368372    0.0091329373    1.3761416439
H       -3.6204368676   -2.2053452741    1.5092003547
H       -2.4917291377   -2.0560511065    0.1377845142
24   
torsion grid (-45,)
C       -0.4446182384    1.1285317851    2.5476611182
N       -0.6138244026   -0.1948736312    1.8757153123
C        0.2239639337   -1.1908798884    2.6742892378
C       -0.1185908886   -0.1514524424    0.4532581060
C       -2.1036019157   -0.5325860566    1.9239164212
C       -2.5574885578   -1.9135677602    1.3920894324
O       -1.7964429371   -2.9757180021    1.8227219533
P       -0.7149065789   -3.7802322096    0.5524795496
O       -1.3402289078   -5.1375742150    0.3495007692
O        0.6259080223   -3.6815535581    1.2997113876
O       -0.8423845307   -2.7525947165   -0.6001519250
H       -1.0884204032    1.8712032175    2.0683158018
H       -0.7095353640    1.0315876408    3.6016781341
H        0.5980691113    1.4386985768    2.4583875419
H        0.3968749512   -2.1380473381    2.1129447369
H        1.1738859215   -0.6882130452    2.8857019171
H       -0.3098882780   -1.4032930292    3.6017897884
H       -0.3237997874   -1.1404632434   -0.0328913146
H       -0.6370315729    0.6664704197   -0.0576124429
H        0.9561244919    0.0451012393    0.4857038828
H       -2.4119027993   -0.2977494024    2.9483428895
H       -2.5784192705    0.2363887113    1.2977095842
H       -3.6063737936   -1.9870424706    1.7482343647
H       -2.5761756800   -1.8575731388    0.2960584729
24   
torsion grid (-30,)
C       -0.1441719844   -1.4830965776    1.8632539273
N        0.1542967948   -0.0832487334    2.2822464627
C        0.3959796454    0.7640139252    1.0671473797
C        1.4284886230   -0.0960622775    3.1135492025
C       -1.0532675854    0.4258833925    3.1031881787
C       -1.2590840389    1.9543294761    3.0483948558
O       -0.0879279088    2.6717582745    3.1910142177
P        0.7213237061    2.6400909047    4.8649978462
O        0.3173268561    3.9579661624    5.4820522861
O        2.1638209031    2.4541915930    4.3700808943
O        0.0864212017    1.3570547080    5.4471011916
H       -0.3478655139   -2.0773457268    2.7554063619
H       -1.0169501889   -1.4935479517    1.2062159711
H        0.7199393443   -1.8948846403    1.3366214823
H        0.6335501666    1.7687131494    1.4254695119
H        1.2267831046    0.3290071984    0.5055896778
H       -0.5073421519    0.7709270401    0.4526417986
H        1.7492896373    0.9292395889    3.3961423854
H        1.2216768279   -0.6342813790    4.0379949765
H        2.1855826969   -0.6096561050    2.5099128720
H       -1.9319539581   -0.0980037308    2.7068723134
H       -0.8313415878    0.1781284106    4.1460470175
H       -1.7363303316    2.2243612246    2.0872883625
H       -1.9981456373    2.1574882820    3.8429677004
24   
torsion grid (-15,)
C       -0.1105899867   -1.3744001293    1.7680154737
N        0.2298023258   -0.0752577226    2.4146271519
C        0.6436283038    0.9373339104    1.3765139062
C        1.4233494964   -0.3163440976    3.3266953473
C       -0.9987942491    0.3737617218    3.2549138184
C       -1.4896438565    1.8347118560    3.0866962575
O       -0.5840194737    2.8638424509    3.1911551675
P        0.6364099031    2.8645787394    4.5364150854
O        0.5697355035    4.2733425889    5.0671377810
O        1.8848474156    2.4716194501    3.7016140365
O        0.1282530283    1.7056699280    5.4162691810
H       -0.3994696536   -2.0894395657    2.5402102531
H       -0.9396965362   -1.2283887088    1.0705162968
H        0.7610656749   -1.7491487584    1.2267897186
H        1.0342529218    1.8121180992    1.9150863906
H        1.4181193815    0.4719689782    0.7591301687
H       -0.2244946259    1.1881725385    0.7651685831
H        1.7477937740    0.6700024600    3.7186962921
H        1.1070804599   -0.9937009632    4.1208864347
H        2.2042153682   -0.7769249132    2.7120297265
H       -1.8344237928   -0.2455399296    2.9107148939
H       -0.7242542385    0.2364208491    4.3017198712
H       -1.9945227392    1.9190712849    2.1054906170
H       -2.2902884118    1.8811976855    3.8533452380
24   
torsion grid (0,)
C       -0.7727023318   -1.2712380131    2.3400704684
N        0.1139156088   -0.0885663251    2.5216305607
C        0.4702438511    0.4897424308    1.1710832872
C        1.4012009252   -0.5364685045    3.1843700570
C       -0.5982060946    0.9251282700    3.4645287459
C       -0.8914273582    2.3313897121    2.9019665960
O        0.1795661739    3.0722543835    2.4495195686
P        1.7212289311    3.0991080741    3.4213993604
O        2.1749416606    4.5296210987    3.2895689803
O        2.5172543044    2.0274772875    2.6235193506
O        1.2459326419    2.5771822811    4.7893635844
H       -0.9913772138   -1.7095548039    3.3156264195
H       -1.7021132525   -0.9535420571    1.8608432568
H       -0.2695646475   -2.0091653102    1.7107187706
H        1.2237683438    1.2730539513    1.3463062490
H        0.8724300177   -0.3311105253    0.5686893349
H       -0.4345785709    0.8872007657    0.7110281983
H        2.0523763439    0.3624436734    3.2334581567
H        1.1509801360   -0.9325349383    4.1705826761
H        1.8430843601   -1.3182798054    2.5578078539
H       -1.5586761017    0.4692474082    3.7254593622
H        0.0583115629    1.0810329359    4.3279385191
H       -1.6405700279    2.2561387013    2.0904032365
H       -1.4082066571    2.8064550073    3.7603302628
24   
torsion grid (15,)
C       -0.9021906745   -1.1820594342    2.2062600337
N        0.1008646296   -0.1206997250    2.4971304241
C        0.5506295816    0.5085617278    1.1953862641
C        1.3186382572   -0.7266164918    3.1529587529
C       -0.5129777032    0.8944581977    3.5007971091
C       -0.9212792719    2.2660851378    2.9363715831
O        0.1100968229    3.0432378523    2.4433246963
P        1.6183751408    3.1483205596    3.4673660996
O        2.1605322232    4.5071381821    3.1056965339
O        2.3885370982    1.9173029794    2.8984559392
O        1.0595746408    2.8850913929    4.8725253312
H       -1.1670093909   -1.6952500100    3.1327917271
H       -1.7921747802   -0.7186971190    1.7740849014
H       -0.4804276562   -1.8983613525    1.4970857833
H        1.3379476143    1.2336572046    1.4551537123
H        0.9219974831   -0.3067113210    0.5654851058
H       -0.3032846541    0.9945319128    0.7258127179
H        2.0152765579    0.1228259281    3.3019153863
H        1.0055934570   -1.1789285444    4.0970737457
H        1.7270930745   -1.4902145076    2.4830094096
H       -1.3976455613    0.3993982583    3.9151270652
H        0.2275742127    1.1002370136    4.2796389059
H       -1.6914299008    2.1390327335    2.1504147878
H       -1.4242296872    2.7343089181    3.8035075363
24   
torsion grid (30,)
C       -0.9211540641   -1.1061884724    2.1574728605
N        0.1392090942   -0.1277347997    2.5251372176
C        0.6440519388    0.5304414125    1.2532231722
C        1.3136404735   -0.8071284662    3.1729847919
C       -0.4348612012    0.8713653895    3.5606425561
C       -0.9892581701    2.1846625371    2.9947675916
O       -0.0254208289    3.0037706830    2.4286146733
P        1.4800167314    3.2574155227    3.4438253988
O        2.0078195599    4.5608979952    2.9007924735
O        2.2781465157    1.9718903561    3.0537569102
O        0.9029271692    3.1691779506    4.8596457749
H       -1.2224924116   -1.6696656431    3.0433923622
H       -1.7780186104   -0.5575232205    1.7619399713
H       -0.5395201591   -1.7917992308    1.3972600532
H        1.4349122056    1.2338246304    1.5624929154
H        1.0105889676   -0.2797653810    0.6132139189
H       -0.1805190051    1.0570756879    0.7772996321
H        2.0374442015    0.0026570520    3.3625995297
H        0.9748794660   -1.2730459191    4.1016903955
H        1.7037027066   -1.5671468783    2.4887655832
H       -1.1916863298    0.3059296452    4.1172909174
H        0.3751622956    1.1491532889    4.2362218701
H       -1.7850447813    1.9812057495    2.2507212699
H       -1.4739808057    2.6516221212    3.8706836613
24   
torsion grid (45,)
C       -1.1877900424   -1.0530913587    1.9975443602
N        0.0422946361   -0.3189546269    2.4029680972
C        0.6822375391    0.2463481455    1.1419195870
C        1.0562440366   -1.2098926323    3.0505726093
C       -0.3299735281    0.7604392910    3.4432464698
C       -0.8369124349    2.0895140198    2.8772347212
O        0.1512342614    2.7909136573    2.2003222914
P        1.7221223000    3.0075387394    3.1408108276
O        2.3406688347    4.1873303141    2.4339133915
O        2.3917569052    1.6181758203    2.8795337330
O        1.1867393054    3.1274659344    4.5682000241
H       -1.6201841861   -1.5543792432    2.8673589592
H       -1.9017607124   -0.3322810029    1.5981732472
H       -0.9386800061   -1.7911737684    1.2315755037
H        1.5626936411    0.8282948297    1.4744210998
H        0.9277088473   -0.6170949479    0.5130248024
H       -0.0322426032    0.9026384684    0.6506474619
H        1.9235786930   -0.5675565065    3.2469353746
H        0.6387954101   -1.6047003100    3.9800775489
H        1.3030589116   -2.0297186385    2.3696197059
H       -1.0048249826    0.2565533995    4.1473133886
H        0.5913238085    0.9930606388    3.9779780887
H       -1.7054983140    1.9326706992    2.2070020251
H       -1.2005225882    2.6327589546    3.7665338205
24   
torsion grid (60,)
C        0.1434851313   -0.8856004903    1.0828496743
N        0.6822083532   -0.4150253821    2.4276046106
C        0.5258644160    1.0575083179    2.5611220099
C        2.1322595852   -0.7886865655    2.4555041114
C        0.0418821691   -1.1471858162    3.6280239370
C       -1.4925374239   -1.0952633174    3.6548317220
O       -2.0570038804   -1.8039712311    2.6023595784
P       -1.5958264108   -3.5928609947    2.5923599661
O       -0.1565533844   -3.5071424565    1.9817961810
O       -2.6607229488   -4.1694169637    1.6920502429
O       -1.5714352515   -3.8858281157    4.0903743380
H        0.1204362430   -1.9994334203    1.1149115998
H       -0.8833568894   -0.5391341518    0.9855875707
H        0.7964549918   -0.4484136221    0.3187120350
H        0.9679187146    1.3877235813    3.5047243645
H        1.0233965207    1.5500634225    1.7221233850
H       -0.5363345529    1.2974630099    2.5501681869
H        2.5591358209   -0.5138331134    3.4225289357
H        2.1847742315   -1.8691288061    2.3112430542
H        2.6590296120   -0.2682590369    1.6511101327
H        0.2837001897   -2.2055222555    3.4761410512
H        0.5051151443   -0.7083816197    4.5196070441
H       -1.7590999118   -1.5315441234    4.6320569632
H       -1.8613321677   -0.0512842744    3.6409405797
24   
torsion grid (75,)
C        0.2102254482    0.1497045520    3.0162062803
N       -0.0535280393   -1.3396439300    3.1726921240
C       -1.1998621547   -1.5565906442    4.0933966397
C        1.2101885200   -1.9281682479    3.7326362092
C       -0.3005415620   -2.0847741405    1.8408901880
C       -1.1575387967   -1.3121884628    0.8274972224
O       -0.5110759035   -0.1898917088    0.3266421515
P        1.1707789027   -0.5158754329   -0.3461956677
O        1.9966095833   -0.5410217585    0.9834663502
O        1.3829597086    0.6825382247   -1.2367476673
O        0.9800296840   -1.9172613797   -0.9267220598
H        1.0374383520    0.2433772855    2.2846538635
H       -0.6846645492    0.6252872586    2.6203436340
H        0.4487589990    0.5221652973    4.0191300472
H       -1.3106472570   -2.6247740148    4.2946330521
H       -1.0236767013   -1.0193015993    5.0282723123
H       -2.1043722960   -1.1773407058    3.6160163550
H        1.0896535902   -3.0105410176    3.8195989775
H        1.9968454364   -1.6782892124    3.0120466760
H        1.4085871258   -1.4902767304    4.7152559683
H        0.6727839406   -2.1848763882    1.3592273965
H       -0.7351671000   -3.0505275220    2.1227963051
H       -1.3720835744   -2.0545268384    0.0397183346
H       -2.1263532165   -1.0115600693    1.2740745566
24   
torsion grid (90,)
C       -0.4024212685   -1.1336834405    1.3166771673
N        0.5846006818   -0.4553353794    2.2492535640
C        0.7950123600    0.9468821949    1.7981292206
C        1.8646566939   -1.2439530284    2.1781100735
C        0.1503686448   -0.4518873193    3.7365625164
C       -1.3645345532   -0.4854838712    3.9838314129
O       -1.9707724132   -1.6688344541    3.5920761271
P       -1.1364121733   -3.1987802177    4.1610976855
O       -0.0430374443   -3.3296000761    3.0518778496
O       -2.2586776838   -4.2041719802    4.1137411074
O       -0.5466953086   -2.7360237885    5.4963277571
H       -0.5086220841   -2.1697737522    1.6806168890
H       -1.3533924619   -0.6070535873    1.3645961080
H        0.0303666063   -1.0669951016    0.3122472507
H        1.5888238169    1.4065687610    2.3909051556
H        1.0728126301    0.9536495999    0.7415082875
H       -0.1355480660    1.5007466820    1.9372206627
H        2.5894428947   -0.7905662107    2.8587837673
H        1.5882344900   -2.2614956456    2.4975871072
H        2.2412433116   -1.2155428973    1.1508563120
H        0.5434523234   -1.3570068308    4.2008868231
H        0.6105685359    0.4425969196    4.1714654832
H       -1.4477403065   -0.3128703803    5.0716347120
H       -1.8589809082    0.3679635388    3.4782433164
24   
torsion grid (105,)
C       -0.4864863245   -1.1253473633    1.3640349650
N        0.5428423536   -0.5499588392    2.3148906992
C        0.8673850013    0.8372970317    1.8794970630
C        1.7714842432   -1.4220672427    2.2494362041
C        0.0642172267   -0.5135121443    3.7927038670
C       -1.4396620426   -0.7016485299    4.0471101368
O       -1.9602169145   -1.9287427895    3.6814499495
P       -0.9949461944   -3.4019779343    4.1656141226
O       -0.0659332505   -3.5087143893    2.9172672901
O       -2.0631428093   -4.4566281352    4.3001776703
O       -0.2479308502   -2.8913542079    5.4049368112
H       -0.6548304642   -2.1666264028    1.6800462731
H       -1.3975585195   -0.5330891783    1.4323524569
H       -0.0579155982   -1.0560858610    0.3586624377
H        1.6656884973    1.2383061763    2.5073380232
H        1.1916580807    0.8261717665    0.8361272327
H       -0.0266525839    1.4567577834    1.9798160473
H        2.5163533132   -1.0106225102    2.9349999991
H        1.4225230314   -2.4282908065    2.5579217582
H        2.1512469565   -1.4067137071    1.2226394290
H        0.5736473951   -1.3154478365    4.3344620178
H        0.3868998712    0.4595788820    4.1793221813
H       -1.5163678330   -0.5185235775    5.1355247602
H       -2.0127463046    0.1031765346    3.5463050378
24   
torsion grid (120,)
C       -0.4925858320   -0.9439374117    1.2942271000
N        0.5449795421   -0.4547260082    2.2803056708
C        1.0479861815    0.8713943962    1.8222331052
C        1.6868228363   -1.4473168521    2.2986538740
C       -0.0135303469   -0.2942993924    3.7244385960
C       -1.4967960619   -0.6329122827    3.9678151740
O       -1.9266532737   -1.8978145077    3.6298881560
P       -0.8894498149   -3.3374086957    4.0503808898
O       -0.2063330167   -3.5405945908    2.6680527648
O       -1.9046171928   -4.3681980440    4.4712098211
O        0.0701804607   -2.7459985936    5.0978956153
H       -0.7567855971   -1.9707268582    1.5894802424
H       -1.3509237367   -0.2730948473    1.3302983745
H       -0.0301446266   -0.9158850243    0.3025114351
H        1.8200306589    1.2213324242    2.5104845702
H        1.4696469112    0.7728351416    0.8191146864
H        0.2189351664    1.5827082718    1.8040480403
H        2.4218452283   -1.0999401130    3.0275298216
H        1.2391472992   -2.4279644538    2.5697617369
H        2.1230205294   -1.4693517966    1.2944652877
H        0.5746193519   -0.9595089665    4.3638479418
H        0.1501817100    0.7552624195    3.9917842180
H       -1.5932822379   -0.4220778999    5.0522182002
H       -2.1330314445    0.1093166165    3.4485423702
24   
torsion grid (135,)
C       -0.4740216313   -0.7200018526    1.1524902874
N        0.5389669108   -0.2473078570    2.1681402771
C        1.0816161719    1.0694248252    1.7215668855
C        1.6791692271   -1.2462731619    2.2169902885
C       -0.0829727795   -0.0422731501    3.5779198582
C       -1.5087481655   -0.5808914261    3.8424352767
O       -1.8173007222   -1.8685748537    3.4736514717
P       -0.6699969668   -3.2218874678    3.8713759682
O       -0.1033805338   -3.4561117089    2.4447898770
O       -1.5719591598   -4.2852490498    4.4434518194
O        0.3363286244   -2.5111710553    4.7953493862
H       -0.7486834119   -1.7489226329    1.4231698291
H       -1.3326118939   -0.0477726425    1.1783223160
H        0.0072737465   -0.6827897222    0.1705568624
H        1.8075748406    1.4239462394    2.4560435324
H        1.5711007556    0.9485861712    0.7525646788
H        0.2634793654    1.7880706885    1.6328227815
H        2.3671825206   -0.9321830223    3.0028925102
H        1.2362991697   -2.2442511952    2.4178910722
H        2.1686423846   -1.2164898396    1.2374299246
H        0.6170847070   -0.4969049777    4.2773492746
H       -0.1213412078    1.0441093517    3.7226856582
H       -1.6089259982   -0.4034887475    4.9327973633
H       -2.2285002788    0.0993604868    3.3487737227
24   
torsion grid (150,)
C       -0.5969346562   -0.3019217866    0.8538755483
N        0.3824942344   -0.3200275604    1.9908204891
C        1.1706023586    0.9462339734    1.9896325910
C        1.3434260624   -1.4795629632    1.7735614548
C       -0.3336369046   -0.4214833447    3.3570670058
C       -1.6406634311   -1.2408625678    3.3277076623
O       -1.5352755755   -2.4131873271    2.6056048469
P       -0.4845228997   -3.7602750549    3.3422366705
O        0.2125952765   -4.1832898118    2.0407273204
O       -1.4907931340   -4.6900554559    3.9780742782
O        0.4040332851   -2.9209593818    4.2881547150
H       -1.1281388889   -1.2564916138    0.8805837499
H       -1.2864661282    0.5343685007    0.9911119131
H       -0.0390375101   -0.1775375417   -0.0778491443
H        1.8535450948    0.9315658177    2.8404638617
H        1.7418669621    1.0156762798    1.0609703506
H        0.4956794926    1.8011870661    2.0732964997
H        1.9892458480   -1.5503852616    2.6481283366
H        0.8106351046   -2.4490684787    1.6851114443
H        1.9137345106   -1.2417098859    0.8683006784
H        0.3577726893   -0.9544854920    4.0170943414
H       -0.5277296120    0.6107959099    3.6743365488
H       -1.8867288842   -1.4012024179    4.3918475614
H       -2.4506698272   -0.6206498256    2.8991327006
24   
torsion grid (165,)
C       -0.6109137840   -0.1756772638    0.8000675935
N        0.4223958905   -0.2450262842    1.8796040913
C        1.1640397043    1.0484225092    1.9477388203
C        1.4279248985   -1.3398098652    1.5362662863
C       -0.2489114966   -0.4520009693    3.2519714505
C       -1.3489260857   -1.5330105579    3.2464244906
O       -1.0095410309   -2.6373932316    2.4914751733
P        0.2434574069   -3.7756208759    3.2878773091
O        0.8950123484   -4.2748668943    1.9989660988
O       -0.6177819660   -4.7029450019    4.1160727837
O        1.0835784117   -2.7353589103    4.0721473290
H       -1.0925854727   -1.1541071783    0.7604143212
H       -1.3327949016    0.6082838753    1.0420735131
H       -0.1129571789    0.0505720820   -0.1462878950
H        1.8980794195    0.9821319601    2.7518614989
H        1.6741668862    1.2238331446    0.9978364620
H        0.4671263334    1.8647374942    2.1497939041
H        2.0187940448   -1.5527005840    2.4290957941
H        0.9208765689   -2.2799960907    1.2990370450
H        2.0200358841   -0.9611518625    0.6954883616
H        0.5508407224   -0.7608663417    3.9281089326
H       -0.6644187761    0.5295872270    3.5193267083
H       -1.5252520492   -1.7692264352    4.3099419851
H       -2.2842467289   -1.0890971587    2.8546745683
24   
torsion grid (180,)
C       -0.2207250961    0.3402801369    0.7217997880
N        0.3810322245   -0.4597223085    1.8242076676
C        1.5726089652    0.2274269579    2.4021039756
C        0.8525208889   -1.7924259222    1.2491534754
C       -0.6296825734   -0.6385364613    2.9791734139
C       -1.8694265205   -1.4728893942    2.6257033774
O       -1.5502818782   -2.7962349208    2.3541639866
P       -0.7718755496   -3.6660267558    3.7909198890
O       -0.9417165931   -5.1101765302    3.3863804119
O       -1.5647823062   -3.0621402290    4.9466507312
O        0.6842770404   -3.0990489025    3.7073962595
H       -1.0738751606   -0.2048033752    0.3235483281
H       -0.5501775811    1.3088470462    1.1083679397
H        0.5246019589    0.4858813508   -0.0639419317
H        1.9835192623   -0.4325240528    3.1676091969
H        2.3109498507    0.4034203222    1.6152656992
H        1.2649140250    1.1765714026    2.8465319194
H        1.0941254633   -2.4559910106    2.1105148575
H        0.0180127031   -2.2479265900    0.7211026249
H        1.6889439128   -1.5611683654    0.5795271812
H       -0.0946031956   -1.2336875629    3.7301713517
H       -0.8767166521    0.3774425525    3.3103052053
H       -2.5113783227   -1.3834137035    3.5182582810
H       -2.4212302441   -1.0370616589    1.7708525277
