14   
torsion grid (-165,)
C       -2.6547816367    1.7230673042    0.0608595452
C       -2.7307649059    1.9366833343    1.5960548355
C       -1.1249498098    0.6728100555    1.0758087832
C        0.8070410455   -0.3724196634   -0.0084602534
C        1.8945051015    0.7450068968   -0.0871534987
N       -1.6574975071    0.9533860202   -0.2077466123
N       -1.7828824227    1.2777697778    2.1682649329
O        0.6241476186   -1.3611844970   -0.5868274557
O       -0.0916448635   -0.0179555456    1.2467549925
F        2.6595126253    0.6636684094    0.9972752121
F        2.6001746526    0.5619957309   -1.1850584447
F        1.2776322071    1.9368571313   -0.1175075703
H       -3.3097585140    2.1460794506   -0.6982248206
H       -3.4446868689    2.5539272854    2.1376137285
14   
torsion grid (-150,)
C       -2.6011212508    2.1630365826    0.6717844845
C       -2.8231210940    1.2365980537    1.8969841925
C       -1.4200774649    0.4114259351    0.5549590681
C        0.6527578597    0.1401384059   -0.7507031679
C        1.7086260843    0.7203457106    0.2466391618
N       -1.7291772630    1.6256358011   -0.1093266399
N       -2.0890155028    0.1843287312    1.7775356887
O        0.6528316945   -0.0405631948   -1.8960121596
O       -0.5379527478   -0.3818511711    0.1420080832
F        1.0959542309    1.6150748842    1.0415848073
F        2.1892892068   -0.2757252912    0.9822408326
F        2.6605221521    1.3029173738   -0.4528587970
H       -3.0728638608    3.1240868825    0.4769022389
H       -3.4648918207    1.4261517965    2.7550565597
14   
torsion grid (-135,)
C       -2.6501354990    2.1654259957    0.6947415883
C       -2.7027452593    1.2555886381    1.9525929421
C       -1.4496270945    0.4390748063    0.4642983632
C        0.6737339050    0.1091838683   -0.8038920728
C        1.6296730320    0.7133690330    0.2806315509
N       -1.8603700622    1.6356186072   -0.1743157355
N       -1.9637652981    0.2171712731    1.7605461857
O        0.8158396691   -0.1228148121   -1.9309916646
O       -0.6110719046   -0.3488827165   -0.0476335254
F        0.9412440647    1.6255371252    0.9938554817
F        2.0384654112   -0.2616221398    1.0816553062
F        2.6417454583    1.2855160398   -0.3368147730
H       -3.1670919461    3.1107246422    0.5421578554
H       -3.2373269122    1.4480717133    2.8806900786
14   
torsion grid (-120,)
C       -2.6991631751    2.2071667220    0.7714147844
C       -2.6679516935    1.2438122554    1.9913752902
C       -1.4758101092    0.5207617905    0.4056409735
C        0.7132918880   -0.0248414088   -0.7848198301
C        1.5732457385    0.6850115341    0.3181257501
N       -1.9453957661    1.7322828922   -0.1590285159
N       -1.9154537761    0.2336827329    1.7165385472
O        0.9980134247   -0.4654156574   -1.8188466038
O       -0.6966516792   -0.2578909196   -0.2086806298
F        0.8440365112    1.6693437026    0.8788205359
F        1.8895151450   -0.2122775361    1.2428383758
F        2.6461354626    1.1838055725   -0.2570959925
H       -3.2450413019    3.1446137251    0.6859348409
H       -3.1648514830    1.3796668675    2.9499624535
14   
torsion grid (-105,)
C       -2.7806101072    2.2381743654    0.8416516476
C       -2.6584812682    1.2324150338    2.0226391808
C       -1.5069070635    0.6201728298    0.3606747997
C        0.6975437941   -0.0870629520   -0.7887975057
C        1.5364921879    0.6618446708    0.3050552514
N       -2.0524356107    1.8276012828   -0.1384323507
N       -1.8738218849    0.2688650159    1.6791328428
O        1.0135036731   -0.6437692846   -1.7550893150
O       -0.7666783125   -0.1228787463   -0.3399968077
F        0.8320471477    1.7133645403    0.7638877924
F        1.7641365068   -0.1855207959    1.3012334686
F        2.6585777795    1.0700439276   -0.2471888883
H       -3.3663217848    3.1548899320    0.8154274684
H       -3.1287446855    1.3059612407    3.0012696392
14   
torsion grid (-90,)
C       -2.5169946436    2.4273089398    0.7252633361
C       -2.7548679131    1.2497931527    1.7149581886
C       -1.3762239530    0.7281620344    0.1995251884
C        0.8397801628   -0.3918664684   -0.5322075957
C        1.6515407763    0.6787096185    0.2773060063
N       -1.6688411583    2.0595023128   -0.1731896737
N       -2.0327367552    0.2450160352    1.3563688821
O        1.1813269819   -1.3154419387   -1.1439599800
O       -0.6409197388   -0.0153578845   -0.5072777545
F        0.9342085139    1.0671247471    1.3484222641
F        2.7856444902    0.1333826761    0.6596766802
F        1.8565797502    1.7233289004   -0.5170659310
H       -2.9681227646    3.4171008621    0.7584964323
H       -3.4106119187    1.2421820635    2.5833429446
14   
torsion grid (-75,)
C       -2.5961963661    2.4171079491    0.7383739376
C       -2.7097779788    1.2206719946    1.7266496633
C       -1.3431154761    0.8168129229    0.1645388683
C        0.8172682576   -0.3863764526   -0.5146391576
C        1.6785925682    0.6584454043    0.2786745489
N       -1.7537173532    2.1197735469   -0.1912527133
N       -1.9177141658    0.2804809862    1.3425638150
O        1.1209795648   -1.3552328107   -1.0756841730
O       -0.6197586651    0.1247313300   -0.6060849043
F        0.9384180740    1.1883205384    1.2723213663
F        2.7250438991    0.0344671172    0.7755921493
F        2.0392235906    1.6191164954   -0.5628070543
H       -3.1226673104    3.3680033288    0.7918209604
H       -3.3470108520    1.1507482601    2.6059511345
14   
torsion grid (-60,)
C       -2.6095186929    2.3910137385    0.7175458375
C       -2.6284486013    1.1529525169    1.6578000891
C       -1.2407003062    0.9172075014    0.0794339869
C        0.8633035603   -0.3511612004   -0.4836780454
C        1.7693445413    0.6788472952    0.2767929777
N       -1.7532072348    2.1945423584   -0.2263475612
N       -1.7650835733    0.2937982245    1.2393571369
O        1.1075069558   -1.3901056782   -0.9408379828
O       -0.4963793415    0.3070941671   -0.7395902271
F        1.0344013548    1.2987029014    1.2227363243
F        2.7644164420    0.0216251713    0.8330781700
F        2.2073932956    1.5756158385   -0.5980867017
H       -3.2079085809    3.2954396710    0.8080414899
H       -3.2639342364    0.9944704067    2.5268375962
14   
torsion grid (-45,)
C       -2.6941868100    2.3823418084    0.7530866732
C       -2.6224313827    1.1232104989    1.6599822968
C       -1.2383734511    1.0202729756    0.0644212262
C        0.7806884121   -0.3518254688   -0.3751021485
C        1.7906665267    0.6309818705    0.3092660806
N       -1.8383780467    2.2671356831   -0.2043946358
N       -1.7088953153    0.3335250772    1.2126770819
O        0.8726249995   -1.4638875533   -0.6946982765
O       -0.4644462194    0.4845757413   -0.7745999530
F        1.1267640506    1.3556485862    1.2321884277
F        2.7368087311   -0.0815729854    0.8833814449
F        2.2874789879    1.4419546230   -0.6162444488
H       -3.3511659662    3.2416304895    0.8720633816
H       -3.2402737436    0.8982790594    2.5270669913
14   
torsion grid (-30,)
C       -2.7942498033    2.3720652775    0.7297661849
C       -2.6013578256    1.1277381722    1.6374496907
C       -1.2298167260    1.1447437538    0.0274246350
C        0.7435910449   -0.2767105347   -0.3284620591
C        1.8495711325    0.6206263579    0.3175079079
N       -1.9410044983    2.3341295151   -0.2354614384
N       -1.6278876328    0.4197160745    1.1798500692
O        0.6854626828   -1.4081145117   -0.5787225948
O       -0.3945545800    0.6985846370   -0.7993478073
F        1.2731636879    1.4008005000    1.2494594931
F        2.7511395988   -0.1648885039    0.8693499074
F        2.3857257315    1.3811831474   -0.6307766103
H       -3.5256442291    3.1680667981    0.8540366601
H       -3.1841567994    0.8533160407    2.5144824844
14   
torsion grid (-15,)
C       -2.8878391473    2.2787693503    0.6790686011
C       -2.5586938691    1.0958541505    1.6282524815
C       -1.2102225714    1.1957748410    0.0015663610
C        0.7531199399   -0.2322990827   -0.3109164723
C        1.9344591160    0.5679608376    0.3219310131
N       -2.0418926960    2.2966708573   -0.2927689822
N       -1.5247092721    0.4723406535    1.1800689952
O        0.5798361740   -1.3535721137   -0.5540568129
O       -0.3043680169    0.8422418910   -0.7917190459
F        1.4389393439    1.3796743014    1.2692087927
F        2.7852036530   -0.2904290656    0.8471322462
F        2.5084557889    1.2931396884   -0.6339649544
H       -3.6979637277    2.9976161182    0.7835988496
H       -3.0951241634    0.8019727129    2.5282565628
14   
torsion grid (0,)
C       -2.9846053670    2.2188167767    0.6280550850
C       -2.5581736656    1.1177556436    1.6346775311
C       -1.2156367302    1.2538723391    0.0061810842
C        0.7450461770   -0.1776339577   -0.2951792248
C        1.9992351465    0.5142765668    0.3201300418
N       -2.1365457585    2.2657524559   -0.3406488379
N       -1.4756858144    0.5600482594    1.2147205911
O        0.4644323780   -1.2733361636   -0.5544546153
O       -0.2398868261    0.9884127791   -0.7348189743
F        1.5935786805    1.3253378672    1.3062600119
F        2.8048045042   -0.4193343724    0.7873892635
F        2.5913180803    1.2268795804   -0.6351039761
H       -3.8546223645    2.8686424500    0.6968699257
H       -3.0625986082    0.8331911315    2.5559376383
14   
torsion grid (15,)
C       -3.0694896372    2.1636892789    0.5787010414
C       -2.5997225349    1.1492676701    1.6549856166
C       -1.2178899123    1.2975608103    0.0599664439
C        0.7486552968   -0.1288755390   -0.2434467497
C        2.0806040112    0.4506464895    0.3176829941
N       -2.1934997700    2.2241749044   -0.3642830498
N       -1.4715450762    0.6441201858    1.2929660291
O        0.3617730971   -1.1913951809   -0.5063348878
O       -0.1680203731    1.1170137087   -0.6023851777
F        1.7879585782    1.2290505593    1.3653031309
F        2.8534515022   -0.5544716015    0.6828868649
F        2.6556349482    1.1756099428   -0.6392529479
H       -3.9846350236    2.7522046462    0.5872317441
H       -3.1042886905    0.8901705278    2.5836306263
14   
torsion grid (30,)
C       -3.1430939655    2.1433469810    0.5158439709
C       -2.7066098382    1.1767446720    1.6502471559
C       -1.2178331491    1.3585070530    0.1599417702
C        0.7700652283   -0.0394913517   -0.1981550137
C        2.1929455347    0.4341854143    0.2190815452
N       -2.1990654769    2.2304102472   -0.3570913064
N       -1.5339917331    0.7153332649    1.3825704474
O        0.2882580724   -1.0677185333   -0.4469092859
O       -0.0908990076    1.2624014513   -0.3888990861
F        2.0745545561    1.1648054243    1.3318840556
F        2.9407004549   -0.6320187274    0.4353214610
F        2.6938167740    1.1790073367   -0.7639078195
H       -4.0838764692    2.6848348964    0.4402250550
H       -3.2606057628    0.9234811595    2.5520174906
14   
torsion grid (45,)
C       -3.1826516948    2.1084246677    0.4461806441
C       -2.8402427585    1.1791640102    1.6450786998
C       -1.2130458156    1.3641215572    0.3090462318
C        0.8065517925   -0.0101581623   -0.1040486697
C        2.2851385314    0.4159393431    0.1403948590
N       -2.1549586091    2.2002090677   -0.3264171905
N       -1.6373281297    0.7389246813    1.5067265041
O        0.2734457531   -1.0183781470   -0.3329146926
O       -0.0218706748    1.3130509530   -0.0994920974
F        2.3369902320    1.0729768083    1.3012747895
F        3.0266196956   -0.6762388529    0.1843842822
F        2.6680293083    1.2128861566   -0.8541883507
H       -4.1238502623    2.6218022896    0.2599110781
H       -3.4746498161    0.9376980817    2.4957174008
14   
torsion grid (60,)
C       -3.1664748037    2.0886246001    0.3935503660
C       -2.9295374788    1.2029058413    1.6519937856
C       -1.1889368341    1.3521748369    0.4622459053
C        0.8648173515   -0.0010113262   -0.0637829880
C        2.3560642601    0.4460250735    0.0473912971
N       -2.0737851001    2.1573308280   -0.2867484337
N       -1.7167181074    0.7676234100    1.6376684745
O        0.3286310187   -1.0003390074   -0.3206711175
O        0.0363027340    1.2925106008    0.1667702967
F        2.5280655120    1.0378217028    1.2288718035
F        3.1105983243   -0.6340680399   -0.0536443987
F        2.6157797799    1.3014997069   -0.9380505179
H       -4.0892031148    2.5875511632    0.1039981298
H       -3.6392717939    0.9820245214    2.4469093265
14   
torsion grid (75,)
C       -3.1548695853    2.0520180662    0.3382340996
C       -2.9917674929    1.2826000073    1.6822729385
C       -1.1876995713    1.3170933825    0.5790339888
C        0.8934034800   -0.0420324324   -0.0717867976
C        2.3725025227    0.4528571067    0.0155109971
N       -2.0291200512    2.0493988313   -0.2891833884
N       -1.7812060411    0.8502300015    1.7750787648
O        0.3742345316   -1.0313815077   -0.3887804866
O        0.0430025148    1.1871189644    0.3420804038
F        2.5940152340    0.8997926543    1.2494751441
F        3.1541175852   -0.5757429019   -0.2624229723
F        2.5426046156    1.4326383331   -0.8677920680
H       -4.0571058887    2.5254860076   -0.0438367551
H       -3.7498706787    1.1218396207    2.4462987079
14   
torsion grid (90,)
C       -3.1535804449    1.9907884080    0.3064580034
C       -3.0160196302    1.3849760613    1.7345065711
C       -1.1848096904    1.3163795704    0.6800290400
C        0.8783185957   -0.0623451327   -0.0789453098
C        2.3591221025    0.4292138928    0.0071600160
N       -2.0133763003    1.9259497289   -0.2907147492
N       -1.8017476849    0.9906516592    1.9103781311
O        0.3493586997   -1.0311248100   -0.4380611076
O        0.0415744773    1.1188109365    0.4772491874
F        2.6478218095    0.6672618275    1.2837516494
F        3.1250702178   -0.5308212121   -0.4802413405
F        2.4778897690    1.5433589349   -0.7089613353
H       -4.0508694371    2.4040346594   -0.1499351955
H       -3.7966007856    1.2873250112    2.4864090089
14   
torsion grid (105,)
C       -3.1255388934    1.9064612786    0.2478185514
C       -3.0405850586    1.4349714956    1.7297924065
C       -1.1560331580    1.3483741795    0.7774654618
C        0.8422782979   -0.0232874588   -0.0745135043
C        2.3398997156    0.4215617076   -0.0384529866
N       -1.9547981400    1.8297769926   -0.2857241858
N       -1.8219923271    1.1165135625    2.0028210788
O        0.2698043298   -0.9562398768   -0.4625464917
O        0.0748126032    1.1170767435    0.6427762061
F        2.7259737367    0.5018353444    1.2316282569
F        3.0409641316   -0.4901219524   -0.6894433542
F        2.4396119231    1.6101246136   -0.6281466474
H       -4.0116676790    2.2420732805   -0.2873814218
H       -3.8588295950    1.3542731460    2.4426691883
14   
torsion grid (120,)
C       -3.0586555935    1.8051811051    0.1962585082
C       -3.0487792305    1.4803255290    1.7190062390
C       -1.1098460353    1.3725188957    0.8904203056
C        0.8039631677    0.0364130761   -0.0470576679
C        2.3169522986    0.4214774335   -0.0645551320
N       -1.8562723270    1.7156605840   -0.2598152854
N       -1.8388965840    1.2425362656    2.0938635850
O        0.1772674096   -0.8416723204   -0.4805143584
O        0.1230514595    1.1112530031    0.8440472895
F        2.7888932623    0.3452566933    1.1766660754
F        2.9399555667   -0.4298984733   -0.8604104643
F        2.4235441293    1.6674473188   -0.5235111571
H       -3.9199238065    2.0584065194   -0.4189428278
H       -3.9073688773    1.4238295079    2.3852753807
14   
torsion grid (135,)
C       -2.9729069904    1.7669128112    0.1584726270
C       -3.0574616817    1.5464108128    1.6953461451
C       -1.0880707728    1.2856363763    0.9846113201
C        0.7845994904    0.0019796624   -0.0230507502
C        2.2710374404    0.4588780656   -0.1321203808
N       -1.7563134144    1.5852253071   -0.2259023121
N       -1.8833461216    1.2757047600    2.1521095241
O        0.1605729477   -0.8700625223   -0.4727597318
O        0.1258810014    0.9531781786    1.0268873076
F        2.8518086885    0.2942628200    1.0538148601
F        2.8601914374   -0.2808009045   -1.0546686784
F        2.2840614395    1.7475152769   -0.4758536648
H       -3.7859634030    2.0247278537   -0.5173782091
H       -3.9507291192    1.5791374118    2.3159657077
14   
torsion grid (150,)
C       -2.8259971645    1.7730595079    0.1081324096
C       -3.0350126233    1.6096781444    1.6382921771
C       -1.0677884633    1.1015413050    1.0706821057
C        0.7989319306   -0.1186486564    0.0265141551
C        2.1927739213    0.5461098794   -0.1684655806
N       -1.6164355291    1.4427918606   -0.1891956708
N       -1.9346421197    1.2145445872    2.1797039082
O        0.2563983095   -1.0384813424   -0.4316419341
O        0.0986276450    0.6542050584    1.2072914396
F        2.8864210600    0.4084153012    0.9585488838
F        2.8009947016   -0.0498182920   -1.1770145370
F        1.9966931691    1.8418177312   -0.4305899207
H       -3.5565003491    2.1058129421   -0.6265842739
H       -3.9541404930    1.7751329527    2.1967467785
14   
torsion grid (165,)
C       -2.7157883634    1.7840329555    0.0890272709
C       -2.9659890084    1.7291467325    1.6195244106
C       -1.0803352498    0.9278540675    1.1207902396
C        0.7837314676   -0.2460392496    0.0490097248
C        2.0531639702    0.6282552092   -0.1754796157
N       -1.5580385168    1.2803974113   -0.1665350410
N       -1.9419971471    1.2087854433    2.2030764177
O        0.3646451187   -1.2223190946   -0.4181907255
O        0.0259247794    0.3669910882    1.3048205589
F        2.8305174493    0.5133171273    0.8991139122
F        2.6712879590    0.1977235705   -1.2589192999
F        1.6659132111    1.8996343192   -0.3235401019
H       -3.3828938226    2.1762963110   -0.6759312345
H       -3.8562034637    2.0598467212    2.1505792924
14   
torsion grid (180,)
C       -2.6809078532    1.7466490611    0.0763729049
C       -2.8650156899    1.8247022210    1.6150791171
C       -1.1032241797    0.7838421970    1.1041330705
C        0.7914920341   -0.3168594676    0.0180665439
C        1.9734542738    0.6872416677   -0.1362890691
N       -1.5945863382    1.1060256078   -0.1858991735
N       -1.8800176028    1.2302644094    2.1949408432
O        0.4837157475   -1.3012957120   -0.5140739693
O       -0.0334721999    0.1564033498    1.2889190312
F        2.7373273173    0.6040017942    0.9498695388
F        2.6516544397    0.3714892162   -1.2220190871
F        1.4645698686    1.9226915721   -0.2389708581
H       -3.3354637484    2.1586723022   -0.6890819311
H       -3.6798599944    2.3032999670    2.1544223145
