19   
torsion grid (-165,)
C       -3.4888072372   -1.9542331356   -1.4436286901
C       -4.1984818205   -1.0162177868   -0.7447733942
C       -1.7661107536   -0.7296703485   -0.7633071487
C        0.4321137859    0.8735185266    1.0505791681
C       -0.0628638819    1.2258313360   -0.3691212874
C       -0.3298456913   -0.3115833624   -0.5489791915
C        0.6012514857   -0.9915034224   -1.5505038597
N       -2.1218142766   -1.7835169425   -1.4477479802
N        0.0998237404   -0.4508550519    0.8667071745
O        0.9275725128    1.4789327478    1.9773347637
S       -3.1181324284    0.1442858340   -0.0508750812
H       -3.9222949471   -2.7927186756   -1.9778650257
H       -5.2692905127   -0.9435474097   -0.6057569957
H       -0.9394607329    1.8751606033   -0.3917488891
H        0.7096604490    1.6277843969   -1.0272761141
H        1.6303591033   -0.6687257024   -1.3672904218
H        0.3184498760   -0.7274100845   -2.5729377271
H        0.5454951205   -2.0787703672   -1.4615209072
H        0.2976981969   -1.2772502526    1.4241000084
19   
torsion grid (-150,)
C       -3.4338360705   -2.0632370475   -1.2934000267
C       -4.1700579715   -0.9856772131   -0.8816857947
C       -1.7379024120   -0.6987651082   -0.8578926538
C        0.3811414737    0.8652757554    1.0178949716
C       -0.0533028721    1.2611661811   -0.4109541694
C       -0.3030977413   -0.2660654385   -0.6544290063
C        0.6176657796   -0.9121504050   -1.6876871831
N       -2.0677106058   -1.8919772783   -1.2758640358
N        0.1449998158   -0.4633729029    0.7491961092
O        0.7763208387    1.4530750749    2.0027024978
S       -3.1142943220    0.3153628307   -0.4492650861
H       -3.8476678473   -3.0092182491   -1.6254633357
H       -5.2457756819   -0.8843766767   -0.8209210212
H       -0.9279813710    1.9128401957   -0.4444485257
H        0.7433308095    1.6883549835   -1.0228380371
H        1.6516282541   -0.6133222137   -1.4926262876
H        0.3378323725   -0.5952915374   -2.6968131856
H        0.5429802587   -2.0007322229   -1.6447506067
H        0.1959561257   -1.2973993046    1.3270612907
19   
torsion grid (-135,)
C       -3.4296401026   -2.1222249287   -1.0313034913
C       -4.1683761458   -0.9781258067   -0.8937666829
C       -1.7375137578   -0.7039239299   -0.8070183823
C        0.3518926163    0.8150282467    1.0724944814
C       -0.0634703031    1.2579245051   -0.3484830587
C       -0.3007585240   -0.2602049014   -0.6436054432
C        0.5817782512   -0.8687668592   -1.7319351822
N       -2.0638020024   -1.9575076472   -0.9817180574
N        0.1957353477   -0.5114387569    0.7345851031
O        0.6788792160    1.3740654247    2.0979661859
S       -3.1133198845    0.3784230163   -0.6888418078
H       -3.8419451080   -3.1150218401   -1.1755991787
H       -5.2439542275   -0.8605832712   -0.9096108889
H       -0.9378435885    1.9103934073   -0.3696540207
H        0.7411059210    1.7065787936   -0.9341478149
H        1.6237664919   -0.5805583390   -1.5657239594
H        0.2663873476   -0.5149424286   -2.7185478748
H        0.5037326772   -1.9582874586   -1.7209165379
H        0.1519301005   -1.3503308319    1.3062347384
19   
torsion grid (-120,)
C       -3.4919176404   -2.1044844849   -0.8693168225
C       -4.1987730479   -0.9382685654   -0.9891445938
C       -1.7729025949   -0.7059666703   -0.7747969036
C        0.3789865053    0.7141904176    1.0965915976
C       -0.0704662164    1.2225077380   -0.2919948731
C       -0.3285476990   -0.2797094421   -0.6418372240
C        0.5073679924   -0.8536288508   -1.7855158248
N       -2.1273046647   -1.9636501722   -0.7529650204
N        0.2127946874   -0.5966696842    0.7038571371
O        0.7299989200    1.2269306329    2.1381231848
S       -3.1131961470    0.4098733144   -0.9458301268
H       -3.9280711862   -3.0975471015   -0.8623911416
H       -5.2667828689   -0.8015158547   -1.0963328670
H       -0.9438597513    1.8757029359   -0.2537057321
H        0.7177515738    1.6956783781   -0.8805030837
H        1.5581458666   -0.5811451171   -1.6506889434
H        0.1581708355   -0.4632924785   -2.7469169804
H        0.4197048872   -1.9428195452   -1.8069786756
H        0.1374123512   -1.4522675134    1.2467957337
19   
torsion grid (-105,)
C       -3.5039272484   -2.0621499588   -0.7573678171
C       -4.1623082771   -0.9239216134   -1.1371574230
C       -1.7571349026   -0.6963189125   -0.7591598916
C        0.4021189262    0.6257453948    1.1489489518
C       -0.0485406159    1.2030821559   -0.2125332104
C       -0.3101327131   -0.2818721840   -0.6280126599
C        0.5041730691   -0.8069362540   -1.8118285742
N       -2.1489209453   -1.9246355610   -0.5498598270
N        0.2515556375   -0.6669356546    0.6881877183
O        0.7400575521    1.0859358683    2.2185878553
S       -3.0431370160    0.3952473960   -1.2328958094
H       -3.9698292796   -3.0309259238   -0.6132868276
H       -5.2145306887   -0.7896439810   -1.3507347635
H       -0.9250629534    1.8490055276   -0.1388374890
H        0.7378249799    1.7043063267   -0.7799686583
H        1.5564719150   -0.5338217834   -1.6905621870
H        0.1323906765   -0.3850560727   -2.7512181222
H        0.4238733378   -1.8959131502   -1.8696807828
H        0.1204906346   -1.5343222715    1.2013285790
19   
torsion grid (-90,)
C       -3.5334070811   -2.0469422736   -0.5171751701
C       -4.1569006046   -1.0009429543   -1.1404583246
C       -1.7631587914   -0.7268557026   -0.7205765440
C        0.4481060398    0.5564634771    1.1198030563
C       -0.0503927150    1.1679882980   -0.2088739817
C       -0.3130644342   -0.3096498018   -0.6524194294
C        0.4460942985   -0.7931360161   -1.8899160166
N       -2.1836027699   -1.8841046825   -0.2868815502
N        0.3128998495   -0.7268519084    0.6230724520
O        0.8032700190    0.9893979321    2.1949302949
S       -3.0109893417    0.2618542357   -1.4547605360
H       -4.0213805223   -2.9620587116   -0.1999337656
H       -5.1986920761   -0.8997722251   -1.4148877687
H       -0.9325010365    1.8000333253   -0.0943095339
H        0.7145079980    1.6907046573   -0.7866819962
H        1.5015362084   -0.5173430622   -1.8094794772
H        0.0297771086   -0.3465675854   -2.7985977497
H        0.3712529296   -1.8809825846   -1.9771134565
H        0.1607581363   -1.5962257391    1.1274976793
19   
torsion grid (-75,)
C       -3.5519463495   -1.9642575618   -0.3499682316
C       -4.1217468545   -1.0665887261   -1.2093453597
C       -1.7461654454   -0.7332059508   -0.7287957192
C        0.4559191826    0.5059401611    1.1234670423
C       -0.0559168171    1.1588984253   -0.1785752737
C       -0.2982040692   -0.3083978479   -0.6725429857
C        0.4525063071   -0.7272310268   -1.9385007977
N       -2.2114335435   -1.7690961968   -0.0861463827
N        0.3502991843   -0.7632580305    0.5776108642
O        0.7984268357    0.9024581381    2.2161498460
S       -2.9351337888    0.0902680594   -1.7230055655
H       -4.0727048908   -2.7889659519    0.1240704867
H       -5.1460904696   -1.0152927427   -1.5544235441
H       -0.9511095003    1.7672311699   -0.0398403287
H        0.6959719151    1.7163381231   -0.7412522067
H        1.5055464138   -0.4444636072   -1.8537213009
H        0.0255639425   -0.2433800189   -2.8226930720
H        0.3901984263   -1.8107980757   -2.0776221902
H        0.1594926249   -1.6338829208    1.0672247601
19   
torsion grid (-60,)
C       -3.5968518673   -1.8640208304   -0.1961386442
C       -4.1034884415   -1.1601812937   -1.2523770874
C       -1.7431306564   -0.7699154555   -0.7350179436
C        0.4559057838    0.4282260797    1.1348303450
C       -0.0853066367    1.1216680991   -0.1318341196
C       -0.2989240518   -0.3324413003   -0.6840731539
C        0.4489635397   -0.6705641328   -1.9747215437
N       -2.2647745217   -1.6381431096    0.0874960968
N        0.3750401504   -0.8225472833    0.5387236260
O        0.8015896750    0.7864780407    2.2392994333
S       -2.8636416672   -0.1620241399   -1.9434891502
H       -4.1583542227   -2.5639478265    0.4128397284
H       -5.1082400218   -1.1704680595   -1.6541924194
H       -0.9960503617    1.6975462995    0.0403356756
H        0.6435261672    1.7223645573   -0.6805101825
H        1.4958263651   -0.3690894892   -1.8817769748
H        0.0083558722   -0.1502808192   -2.8311172346
H        0.4107986972   -1.7463008089   -2.1722461559
H        0.1717983975   -1.7000076245    1.0111496979
19   
torsion grid (-45,)
C       -3.6427533918   -1.7054755650   -0.1070348435
C       -4.0706089892   -1.2379643375   -1.3181385374
C       -1.7293018535   -0.7901292682   -0.7585217833
C        0.4592414735    0.3705653274    1.1398651963
C       -0.1078574442    1.0980758232   -0.0949052075
C       -0.2889813095   -0.3407007617   -0.7040943778
C        0.4607810352   -0.5987837366   -2.0104073604
N       -2.3218123477   -1.4499866697    0.1990017152
N        0.4043286697   -0.8580144598    0.4966631660
O        0.8073950347    0.6942655885    2.2539683103
S       -2.7644517964   -0.4408460248   -2.1350573437
H       -4.2565889179   -2.2487596613    0.6030281135
H       -5.0509225467   -1.3210914097   -1.7689319931
H       -1.0338295293    1.6394053718    0.1048657620
H        0.5997478604    1.7395682142   -0.6251907748
H        1.5025516042   -0.2865026222   -1.9009087048
H        0.0161781433   -0.0368796510   -2.8384467517
H        0.4398564211   -1.6619341973   -2.2687288407
H        0.2305855406   -1.7550703230    0.9427838917
19   
torsion grid (-30,)
C       -3.6932267481   -1.5406543848   -0.0120962026
C       -4.0575255166   -1.3423078228   -1.3154920481
C       -1.7332285813   -0.8125116227   -0.7554063477
C        0.4942359095    0.2877343298    1.1313410722
C       -0.1077258113    1.0527479798   -0.0629699185
C       -0.2908362132   -0.3661809195   -0.7212479429
C        0.4356424612   -0.5661620147   -2.0491285904
N       -2.3830497030   -1.2413475738    0.2928389425
N        0.4345668821   -0.9176852547    0.4459956917
O        0.8688497442    0.5745330690    2.2466662469
S       -2.7006580972   -0.7577318487   -2.2216205011
H       -4.3492329301   -1.9103244555    0.7685177715
H       -5.0190364341   -1.5091381882   -1.7832368861
H       -1.0342803936    1.5753923869    0.1780626598
H        0.5818314282    1.7194777527   -0.5858002837
H        1.4746824070   -0.2432535562   -1.9471023404
H       -0.0298756202    0.0233022074   -2.8459732550
H        0.4278137077   -1.6183095953   -2.3501672026
H        0.2932366033   -1.8337460200    0.8637030566
19   
torsion grid (-15,)
C       -3.7424394138   -1.3969781418   -0.0148428387
C       -4.0213872746   -1.4776663579   -1.3525550961
C       -1.7424028790   -0.8007814520   -0.7662189516
C        0.5124472363    0.2383997311    1.1422863249
C       -0.1190505106    1.0407262801   -0.0116967902
C       -0.3002111484   -0.3508170318   -0.7248384685
C        0.4241220723   -0.4955314359   -2.0600084262
N       -2.4582379211   -1.0189507754    0.3042195388
N        0.4397570892   -0.9410932816    0.4172011011
O        0.9172247171    0.4890133062    2.2558695276
S       -2.6127777648   -1.0632432784   -2.2703931136
H       -4.4478253756   -1.6085381423    0.7814814595
H       -4.9493090920   -1.7548224617   -1.8354864416
H       -1.0483030552    1.5378701030    0.2680579230
H        0.5523508335    1.7374396571   -0.5187391798
H        1.4581155619   -0.1603408695   -1.9487325608
H       -0.0519773097    0.1113508446   -2.8372472075
H        0.4364418046   -1.5379340912   -2.3937079670
H        0.3460924001   -1.8815407660    0.7915278518
19   
torsion grid (0,)
C       -3.7787175543   -0.9047728757   -0.1085121846
C       -3.8488816105   -1.7759690128   -1.1629382382
C       -1.6474408061   -0.8009590280   -0.7150488277
C        0.4565200051    0.8675520588    0.9060600304
C       -0.0128943447    1.1721000843   -0.5296275407
C       -0.1945894091   -0.3822140259   -0.6810637284
C        0.6582068871   -1.0358227018   -1.7641153745
N       -2.5380461049   -0.3645721414    0.1350634183
N        0.3931618928   -0.4985112910    0.6792007282
O        0.7623073424    1.5202525131    1.8794158020
S       -2.2888358443   -1.9355858885   -1.8948101280
H       -4.6143809975   -0.6255407938    0.5240813243
H       -4.7079951926   -2.3157754624   -1.5391527704
H       -0.9382501024    1.7465508081   -0.5653094150
H        0.7440531735    1.6124777873   -1.1824818480
H        1.6919982998   -0.6966159079   -1.6639212577
H        0.3007038018   -0.7669280332   -2.7632531571
H        0.6515535844   -2.1271646445   -1.6749242013
H        0.2406257944   -1.2329239775    1.3653564378
19   
torsion grid (15,)
C       -3.8306629335   -0.7997078573   -0.1827789993
C       -3.8458019526   -1.8663304455   -1.0415070916
C       -1.6739506740   -0.7825892285   -0.7052402529
C        0.4839275586    0.7881581942    0.9680301956
C       -0.0118686564    1.1628257668   -0.4422653575
C       -0.2171766187   -0.3770038529   -0.6651694199
C        0.6206840582   -0.9988038771   -1.7783077803
N       -2.6067587392   -0.2001255024   -0.0008258128
N        0.3815064790   -0.5628866089    0.6847718424
O        0.8301895495    1.3907027086    1.9606711320
S       -2.2535199490   -2.1412289206   -1.6607676843
H       -4.6971338991   -0.4107145421    0.3410174742
H       -4.6835702617   -2.4821755697   -1.3413298768
H       -0.9302003063    1.7487414218   -0.4325584588
H        0.7385287698    1.6221416215   -1.0894369735
H        1.6556073916   -0.6607421751   -1.6852014313
H        0.2438351219   -0.7074311365   -2.7636315771
H        0.6206218588   -2.0924183132   -1.7170346368
H        0.2796882750   -1.3420771915    1.3295438197
19   
torsion grid (30,)
C       -3.8346664025   -0.7334428317   -0.3424592440
C       -3.7993645198   -1.9571964751   -0.9545257413
C       -1.6555643324   -0.7843393181   -0.7618265955
C        0.5367282892    0.7238201833    0.9329023910
C        0.0164202154    1.1470844170   -0.4544521869
C       -0.1984807931   -0.3802626532   -0.7269904311
C        0.6185189985   -0.9702917614   -1.8730938277
N       -2.6255525684   -0.0848077549   -0.2382872439
N        0.4187063774   -0.6164919270    0.6086942150
O        0.9058248429    1.2913955881    1.9381282622
S       -2.1775093842   -2.3251397082   -1.4350146006
H       -4.7284404621   -0.2582232492    0.0470493945
H       -4.6164986536   -2.6379034533   -1.1545015394
H       -0.8988359995    1.7357918998   -0.4107591676
H        0.7590600782    1.6229914960   -1.0983765494
H        1.6557744158   -0.6358055775   -1.7912495657
H        0.2185890615   -0.6524238322   -2.8408451257
H        0.6190079106   -2.0653219105   -1.8443631300
H        0.3479326668   -1.4238009281    1.2224800250
19   
torsion grid (45,)
C       -3.8504505416   -0.6839786164   -0.5272720301
C       -3.7560622926   -2.0081125781   -0.8566570038
C       -1.6448103879   -0.7646573073   -0.7646590271
C        0.5388592435    0.7126936716    0.9755978848
C        0.0024202978    1.1756441799   -0.3932383853
C       -0.1935590429   -0.3422069482   -0.7160897563
C        0.6195653300   -0.8839111436   -1.8897293176
N       -2.6580790436    0.0043917951   -0.4751269236
N        0.4315100688   -0.6173131518    0.6078938874
O        0.9095476469    1.2500790560    1.9969456689
S       -2.0979929728   -2.4274273717   -1.1314518184
H       -4.7759236920   -0.1601407347   -0.3143409155
H       -4.5486459588   -2.7371325096   -0.9635579073
H       -0.9212703245    1.7490010044   -0.3279192958
H        0.7346428892    1.6832016018   -1.0245270596
H        1.6556463337   -0.5453378966   -1.8060155096
H        0.2043538029   -0.5328220883   -2.8393856761
H        0.6240773171   -1.9791319712   -1.9046503105
H        0.3915527548   -1.4502354094    1.1893819484
19   
torsion grid (60,)
C       -3.8397924945   -0.6751787327   -0.7313103957
C       -3.7298904525   -2.0371143415   -0.7751261629
C       -1.6231697070   -0.7843464620   -0.7255733686
C        0.5882165545    0.6220184421    1.0560309105
C        0.0117447284    1.1469849476   -0.2742061896
C       -0.1750008404   -0.3540914852   -0.6681260017
C        0.6155019581   -0.8290079497   -1.8870272700
N       -2.6488199982    0.0201331767   -0.7006528421
N        0.4755958434   -0.6882044562    0.6271224198
O        0.9862599695    1.1111071984    2.0914872735
S       -2.0571429105   -2.4907656558   -0.7936635476
H       -4.7751592479   -0.1264929594   -0.7181769370
H       -4.5166767019   -2.7795749403   -0.8025116922
H       -0.9167697252    1.7062729133   -0.1662062539
H        0.7236914504    1.6948905285   -0.8947297378
H        1.6514778143   -0.4870963617   -1.8119846444
H        0.1726168548   -0.4320605083   -2.8056276044
H        0.6201781648   -1.9217942604   -1.9581068769
H        0.4890908254   -1.5545934311    1.1584238644
19   
torsion grid (75,)
C       -3.9810897262   -0.6882013764   -1.2034692014
C       -3.9319441390   -2.0251950588   -0.9210528009
C       -1.8091278548   -0.8150893137   -0.7758204540
C        0.5371973202    0.5266476433    1.0264237631
C       -0.1646673959    1.0914204250   -0.2252315161
C       -0.3632341698   -0.3977276126   -0.6558986426
C        0.4486428742   -0.8442378285   -1.8746030781
N       -2.7792226141   -0.0152703768   -1.1212509804
N        0.2516645157   -0.7702032432    0.6417879153
O        1.1330912994    0.9851000342    1.9778213103
S       -2.3061563965   -2.4831293376   -0.5301433879
H       -4.8785051018   -0.1419656354   -1.4726723961
H       -4.7400367034   -2.7447640494   -0.9074459985
H       -1.0874128019    1.6374667523   -0.0307531707
H        0.4896582039    1.6718294989   -0.8782707866
H        1.4832768534   -0.4998558827   -1.7834580610
H        0.0148680540   -0.4309055156   -2.7898791424
H        0.4514462169   -1.9356301754   -1.9646361563
H        0.6297652842   -1.6529334380    0.9740075009
19   
torsion grid (90,)
C       -3.9145651709   -0.6344087349   -1.2183122835
C       -3.9315081393   -1.9050277038   -0.7113081692
C       -1.7797900321   -0.7479234168   -0.6363639124
C        0.6894169070    0.3991315039    1.1527875345
C       -0.0766156366    1.0813743978    0.0014013089
C       -0.3245652595   -0.3631205184   -0.5429057770
C        0.4183716887   -0.7190886353   -1.8332562507
N       -2.6945123813    0.0079103156   -1.1773870039
N        0.3394071827   -0.8584728701    0.6871090488
O        1.3666627065    0.7623316952    2.0900028944
S       -2.3514552676   -2.3300760743   -0.1378297027
H       -4.7747724405   -0.1172333531   -1.6293559315
H       -4.7672801115   -2.5865462600   -0.6220128910
H       -0.9752383512    1.6231055284    0.2971288023
H        0.5492379433    1.7088590552   -0.6356985779
H        1.4628302980   -0.3982520378   -1.7684101185
H       -0.0540045135   -0.2268600801   -2.6877850519
H        0.3939967651   -1.8000690130   -2.0071028339
H        0.7840202348   -1.7533238372    0.8735392491
19   
torsion grid (105,)
C       -3.8745366774   -0.7383377421   -1.3676252058
C       -3.9408330461   -1.8725252426   -0.6042574345
C       -1.7803824777   -0.7382328803   -0.6484984909
C        0.6811653674    0.3599281140    1.1812446528
C       -0.0901538470    1.0844796255    0.0599262340
C       -0.3301006912   -0.3407268395   -0.5422537248
C        0.4162098993   -0.6454920235   -1.8425147510
N       -2.6479120888   -0.1092590970   -1.3924833899
N        0.3325435690   -0.8811713128    0.6689860893
O        1.3621813481    0.6876114761    2.1283496892
S       -2.4046515370   -2.1729733036    0.1409001159
H       -4.7009235329   -0.3171397919   -1.9299751549
H       -4.7915352876   -2.5168629824   -0.4252056049
H       -0.9904792317    1.6098250325    0.3805567011
H        0.5310173982    1.7411254293   -0.5519667673
H        1.4580714814   -0.3186248431   -1.7663317697
H       -0.0620881822   -0.1294166635   -2.6788996744
H        0.3997241347   -1.7204359603   -2.0512096486
H        0.8007299790   -1.7733847706    0.8045313129
19   
torsion grid (120,)
C       -3.8501553348   -0.8245618239   -1.4527358193
C       -3.9763814725   -1.7855017222   -0.4859850155
C       -1.7794026320   -0.7423635953   -0.6757447195
C        0.6821599242    0.2883175254    1.1903649003
C       -0.0924593610    1.0591071393    0.1030157796
C       -0.3312031420   -0.3409987678   -0.5619966598
C        0.4128777498   -0.5843124279   -1.8750031096
N       -2.6029940137   -0.2465423449   -1.5575493463
N        0.3331443228   -0.9295080790    0.6254456689
O        1.3639533562    0.5766782529    2.1494415339
S       -2.4730895758   -1.9776667218    0.3559937661
H       -4.6442851616   -0.5014169872   -2.1172678135
H       -4.8514693481   -2.3642922071   -0.2209207803
H       -0.9921952158    1.5687789682    0.4504415370
H        0.5260121015    1.7428414134   -0.4814285616
H        1.4535589122   -0.2573020734   -1.7856324448
H       -0.0703402616   -0.0347733299   -2.6863137488
H        0.3991199784   -1.6489193748   -2.1308395050
H        0.7961720010   -1.8293366509    0.7242008734
19   
torsion grid (135,)
C       -3.8098588924   -0.9310384278   -1.5246403500
C       -3.9974003648   -1.6828570493   -0.3963039036
C       -1.7605121751   -0.7619211066   -0.7063658975
C        0.6896559046    0.2444268902    1.1914049770
C       -0.1013275456    1.0405673417    0.1345588372
C       -0.3193635428   -0.3418051280   -0.5807656441
C        0.4316101732   -0.5150567203   -1.8995869207
N       -2.5407070514   -0.4194965978   -1.6942161609
N        0.3490344190   -0.9579714099    0.5898243589
O        1.3732872220    0.5091350897    2.1558229772
S       -2.5259744033   -1.7580570627    0.5177722408
H       -4.5708161767   -0.7238714924   -2.2694390283
H       -4.8968385098   -2.1837826266   -0.0627666139
H       -1.0080333098    1.5198927625    0.5069277593
H        0.5001215084    1.7568102842   -0.4282672761
H        1.4635347757   -0.1665701902   -1.7932909514
H       -0.0636780052    0.0532411436   -2.6898956752
H        0.4439531364   -1.5681907348   -2.1983599453
H        0.8167118980   -1.8580658299    0.6617113103
19   
torsion grid (150,)
C       -3.7738650628   -1.0333688118   -1.5825158847
C       -4.0328220268   -1.5660034179   -0.3487881135
C       -1.7453197302   -0.8045055843   -0.7255172335
C        0.7080656623    0.1313560345    1.2061900930
C       -0.0930106526    0.9712180914    0.1906272477
C       -0.3072607149   -0.3792780661   -0.5899137793
C        0.4374502470   -0.4640632410   -1.9203583486
N       -2.4786704692   -0.6059940036   -1.7860421497
N        0.3752705012   -1.0394600489    0.5467595471
O        1.3871500086    0.3550347594    2.1843619910
S       -2.5963230894   -1.5447427286    0.6215696733
H       -4.4980059911   -0.9359309145   -2.3842379916
H       -4.9627189982   -1.9723968629    0.0272270354
H       -1.0002642052    1.4224186272    0.5956096258
H        0.4955103217    1.7202339575   -0.3423059308
H        1.4678670649   -0.1193416639   -1.7920707799
H       -0.0619979469    0.1526177874   -2.6703438579
H        0.4526736382   -1.4941002419   -2.2898664752
H        0.7997840376   -1.9614477261    0.6058047963
19   
torsion grid (165,)
C       -3.7428425992   -1.1847323593   -1.6565153697
C       -4.0827217233   -1.4675595388   -0.3617186962
C       -1.7538698052   -0.8378300270   -0.7438357081
C        0.7177305655    0.0495136458    1.1958565903
C       -0.1000373692    0.9210147054    0.2205116840
C       -0.3183247256   -0.4015667245   -0.6075811278
C        0.4070331674   -0.4095223482   -1.9510656396
N       -2.4270138409   -0.8271596236   -1.8616692674
N        0.3899336843   -1.0954278522    0.4938397252
O        1.3996016542    0.2427924576    2.1788380212
S       -2.6996825643   -1.2936677004    0.6679757789
H       -4.4197459310   -1.2293457500   -2.5028601173
H       -5.0421664525   -1.7789222026    0.0304809884
H       -1.0016549252    1.3555198960    0.6547035223
H        0.4790260600    1.6907818537   -0.2929730202
H        1.4404918811   -0.0786991713   -1.8118563295
H       -0.0957109857    0.2558112171   -2.6557008048
H        0.4110689427   -1.4128523204   -2.3869481409
H        0.7946055200   -2.0273828731    0.5297257243
19   
torsion grid (180,)
C       -3.5104740118   -1.8143371494   -1.5946876379
C       -4.1809022308   -1.0917845730   -0.6462161972
C       -1.7540936048   -0.7888239045   -0.7083830258
C        0.4214204480    0.9651794968    0.9922924839
C       -0.0963267468    1.2128457612   -0.4404689172
C       -0.3251394750   -0.3435428190   -0.5144877225
C        0.6189897439   -1.0522342281   -1.4830415971
N       -2.1442277678   -1.6338614785   -1.6235759193
N        0.1037492986   -0.3748287917    0.9052608300
O        0.9226514876    1.6377170214    1.8676624057
S       -3.0645395142   -0.1378810594    0.2721391282
H       -3.9717501876   -2.4978176565   -2.2992611222
H       -5.2418697244   -1.0782772188   -0.4330145990
H       -0.9950579163    1.8285390539   -0.4951153386
H        0.6588403334    1.5916655069   -1.1316998385
H        1.6418217590   -0.7027847330   -1.3141062018
H        0.3311705553   -0.8429574684   -2.5156272584
H        0.5849665968   -2.1359895317   -1.3440444554
H        0.3482260744   -1.1581913969    1.5050832938
