52
1 1 C22H27N2O
C                    -1.629466412364     7.833771883962     1.785271666910
C                    -0.349338108367     7.192869388260     1.254152307084
C                    -0.651693964225     6.086976131112     0.268116793843
C                     0.157666291420     5.013126818948     0.167758595137
C                     1.323227454134     4.910776993016     1.055650077080
C                     2.403785606181     4.029787839312     0.870112085476
C                     3.428106804858     3.944400450194     1.811132006851
C                     3.378775471209     4.740975472215     2.963669382855
C                     2.329454358860     5.640290704780     3.158317086056
C                     1.320166507935     5.741113965587     2.198884914603
O                     0.292603088115     6.609756308986     2.428335280007
C                    -0.209303943398     3.895324248754    -0.770865725131
N                    -1.192777138250     2.933896719376    -0.096987985471
C                    -0.615770816905     2.156166491593     1.076635774143
C                     0.282794746181     1.027954397111     0.594062284940
N                    -0.448172869386     0.145651010637    -0.315890764253
C                    -0.903610548109     0.868450384366    -1.491521909990
C                    -1.858102818550     1.978343374543    -1.068838808328
C                     0.178930457406    -1.125845878584    -0.544747514538
C                     0.277340839468    -2.020110622684     0.533327039523
C                     0.879773136225    -3.265762772108     0.362912562176
C                     1.374956283345    -3.646724912760    -0.890460044623
C                     1.264133504754    -2.766238895456    -1.967200717564
C                     0.677585022904    -1.505965230443    -1.798088349536
C                     0.587111150687     8.234948451184     0.626948955216
H                    -2.173958821152     8.324344220086     0.973303731806
H                    -2.278573070453     7.083478764288     2.245741879116
H                    -1.382893639874     8.585086400321     2.539131028226
H                    -1.521813008381     6.207933425886    -0.376308672680
H                     2.465287618793     3.419817619569    -0.026999319802
H                     4.262500211796     3.269426980327     1.647583836650
H                     4.170829234893     4.674541030574     3.703925471372
H                     2.283832441039     6.278140572950     4.035698404790
H                     0.641515917925     3.307661716581    -1.106303417112
H                    -0.732669629396     4.276374428618    -1.649488535935
H                    -1.920752542446     3.543306799750     0.289848858319
H                    -0.083173036496     2.861942901218     1.712431757388
H                    -1.473276826993     1.747401883011     1.615256168012
H                     1.201079891643     1.426127275108     0.132145471577
H                     0.598925354713     0.470124701157     1.476444312439
H                    -0.079228480775     1.285599763517    -2.096353813725
H                    -1.464223530978     0.190216823040    -2.139533896226
H                    -2.716204295877     1.552311994041    -0.544941203980
H                    -2.205362937971     2.563515450593    -1.922680324441
H                    -0.143332293686    -1.748213783730     1.498116294134
H                     0.944143178191    -3.949176708446     1.204972884337
H                     1.833361333860    -4.621919225403    -1.024920243155
H                     1.641310890618    -3.051501978152    -2.945317194391
H                     0.620792137123    -0.836274473169    -2.650384922200
H                     1.521512975487     7.775038806981     0.294045783944
H                     0.818978289579     9.011965972516     1.360990667035
H                     0.108560948190     8.703916878968    -0.238099925666
