
  -OEChem-12102412483D

 52 55  0     0  0  0  0  0  0999 V2000
   -1.6295    7.8338    1.7853 C   0  0  0  0  0  0  0  0  0  0  0  0
   -0.3493    7.1929    1.2542 C   0  0  0  0  0  0  0  0  0  0  0  0
   -0.6517    6.0870    0.2681 C   0  0  0  0  0  0  0  0  0  0  0  0
    0.1577    5.0131    0.1678 C   0  0  0  0  0  0  0  0  0  0  0  0
    1.3232    4.9108    1.0557 C   0  0  0  0  0  0  0  0  0  0  0  0
    2.4038    4.0298    0.8701 C   0  0  0  0  0  0  0  0  0  0  0  0
    3.4281    3.9444    1.8111 C   0  0  0  0  0  0  0  0  0  0  0  0
    3.3788    4.7410    2.9637 C   0  0  0  0  0  0  0  0  0  0  0  0
    2.3295    5.6403    3.1583 C   0  0  0  0  0  0  0  0  0  0  0  0
    1.3202    5.7411    2.1989 C   0  0  0  0  0  0  0  0  0  0  0  0
    0.2926    6.6098    2.4283 O   0  0  0  0  0  0  0  0  0  0  0  0
   -0.2093    3.8953   -0.7709 C   0  0  0  0  0  0  0  0  0  0  0  0
   -1.1928    2.9339   -0.0970 N   0  3  0  0  0  0  0  0  0  0  0  0
   -0.6158    2.1562    1.0766 C   0  0  0  0  0  0  0  0  0  0  0  0
    0.2828    1.0280    0.5941 C   0  0  0  0  0  0  0  0  0  0  0  0
   -0.4482    0.1457   -0.3159 N   0  0  0  0  0  0  0  0  0  0  0  0
   -0.9036    0.8685   -1.4915 C   0  0  0  0  0  0  0  0  0  0  0  0
   -1.8581    1.9783   -1.0688 C   0  0  0  0  0  0  0  0  0  0  0  0
    0.1789   -1.1258   -0.5447 C   0  0  0  0  0  0  0  0  0  0  0  0
    0.2773   -2.0201    0.5333 C   0  0  0  0  0  0  0  0  0  0  0  0
    0.8798   -3.2658    0.3629 C   0  0  0  0  0  0  0  0  0  0  0  0
    1.3750   -3.6467   -0.8905 C   0  0  0  0  0  0  0  0  0  0  0  0
    1.2641   -2.7662   -1.9672 C   0  0  0  0  0  0  0  0  0  0  0  0
    0.6776   -1.5060   -1.7981 C   0  0  0  0  0  0  0  0  0  0  0  0
    0.5871    8.2349    0.6269 C   0  0  0  0  0  0  0  0  0  0  0  0
   -2.1740    8.3243    0.9733 H   0  0  0  0  0  0  0  0  0  0  0  0
   -2.2786    7.0835    2.2457 H   0  0  0  0  0  0  0  0  0  0  0  0
   -1.3829    8.5851    2.5391 H   0  0  0  0  0  0  0  0  0  0  0  0
   -1.5218    6.2079   -0.3763 H   0  0  0  0  0  0  0  0  0  0  0  0
    2.4653    3.4198   -0.0270 H   0  0  0  0  0  0  0  0  0  0  0  0
    4.2625    3.2694    1.6476 H   0  0  0  0  0  0  0  0  0  0  0  0
    4.1708    4.6745    3.7039 H   0  0  0  0  0  0  0  0  0  0  0  0
    2.2838    6.2781    4.0357 H   0  0  0  0  0  0  0  0  0  0  0  0
    0.6415    3.3077   -1.1063 H   0  0  0  0  0  0  0  0  0  0  0  0
   -0.7327    4.2764   -1.6495 H   0  0  0  0  0  0  0  0  0  0  0  0
   -1.9208    3.5433    0.2898 H   0  0  0  0  0  0  0  0  0  0  0  0
   -0.0832    2.8619    1.7124 H   0  0  0  0  0  0  0  0  0  0  0  0
   -1.4733    1.7474    1.6153 H   0  0  0  0  0  0  0  0  0  0  0  0
    1.2011    1.4261    0.1321 H   0  0  0  0  0  0  0  0  0  0  0  0
    0.5989    0.4701    1.4764 H   0  0  0  0  0  0  0  0  0  0  0  0
   -0.0792    1.2856   -2.0964 H   0  0  0  0  0  0  0  0  0  0  0  0
   -1.4642    0.1902   -2.1395 H   0  0  0  0  0  0  0  0  0  0  0  0
   -2.7162    1.5523   -0.5449 H   0  0  0  0  0  0  0  0  0  0  0  0
   -2.2054    2.5635   -1.9227 H   0  0  0  0  0  0  0  0  0  0  0  0
   -0.1433   -1.7482    1.4981 H   0  0  0  0  0  0  0  0  0  0  0  0
    0.9441   -3.9492    1.2050 H   0  0  0  0  0  0  0  0  0  0  0  0
    1.8334   -4.6219   -1.0249 H   0  0  0  0  0  0  0  0  0  0  0  0
    1.6413   -3.0515   -2.9453 H   0  0  0  0  0  0  0  0  0  0  0  0
    0.6208   -0.8363   -2.6504 H   0  0  0  0  0  0  0  0  0  0  0  0
    1.5215    7.7750    0.2940 H   0  0  0  0  0  0  0  0  0  0  0  0
    0.8190    9.0120    1.3610 H   0  0  0  0  0  0  0  0  0  0  0  0
    0.1086    8.7039   -0.2381 H   0  0  0  0  0  0  0  0  0  0  0  0
  1  2  1  0  0  0  0
  1 26  1  0  0  0  0
  1 27  1  0  0  0  0
  1 28  1  0  0  0  0
  2  3  1  0  0  0  0
  2 11  1  0  0  0  0
  2 25  1  0  0  0  0
  3  4  2  0  0  0  0
  3 29  1  0  0  0  0
  4  5  1  0  0  0  0
  4 12  1  0  0  0  0
  5  6  2  0  0  0  0
  5 10  1  0  0  0  0
  6  7  1  0  0  0  0
  6 30  1  0  0  0  0
  7  8  2  0  0  0  0
  7 31  1  0  0  0  0
  8  9  1  0  0  0  0
  8 32  1  0  0  0  0
  9 10  2  0  0  0  0
  9 33  1  0  0  0  0
 10 11  1  0  0  0  0
 12 13  1  0  0  0  0
 12 34  1  0  0  0  0
 12 35  1  0  0  0  0
 13 14  1  0  0  0  0
 13 18  1  0  0  0  0
 13 36  1  0  0  0  0
 14 15  1  0  0  0  0
 14 37  1  0  0  0  0
 14 38  1  0  0  0  0
 15 16  1  0  0  0  0
 15 39  1  0  0  0  0
 15 40  1  0  0  0  0
 16 17  1  0  0  0  0
 16 19  1  0  0  0  0
 17 18  1  0  0  0  0
 17 41  1  0  0  0  0
 17 42  1  0  0  0  0
 18 43  1  0  0  0  0
 18 44  1  0  0  0  0
 19 20  1  0  0  0  0
 19 24  2  0  0  0  0
 20 21  2  0  0  0  0
 20 45  1  0  0  0  0
 21 22  1  0  0  0  0
 21 46  1  0  0  0  0
 22 23  2  0  0  0  0
 22 47  1  0  0  0  0
 23 24  1  0  0  0  0
 23 48  1  0  0  0  0
 24 49  1  0  0  0  0
 25 50  1  0  0  0  0
 25 51  1  0  0  0  0
 25 52  1  0  0  0  0
M  CHG  1  13   1
M  END
$$$$
