
  -OEChem-12102412483D

 56 58  0     0  0  0  0  0  0999 V2000
    3.6524   -3.7985   -3.3805 C   0  0  0  0  0  0  0  0  0  0  0  0
    3.6563   -3.0138   -2.0818 C   0  0  0  0  0  0  0  0  0  0  0  0
    3.2818   -1.6621   -2.1354 C   0  0  0  0  0  0  0  0  0  0  0  0
    3.2739   -0.8839   -0.9711 C   0  0  0  0  0  0  0  0  0  0  0  0
    3.6530   -1.4843    0.2415 C   0  0  0  0  0  0  0  0  0  0  0  0
    4.0209   -2.8285    0.3067 C   0  0  0  0  0  0  0  0  0  0  0  0
    4.0216   -3.6193   -0.8638 C   0  0  0  0  0  0  0  0  0  0  0  0
    4.4120   -5.0856   -0.7893 C   0  0  0  0  0  0  0  0  0  0  0  0
    5.9031   -5.3663   -0.6323 C   0  0  0  0  0  0  0  0  0  0  0  0
    6.8862   -4.5601   -1.2602 C   0  0  0  0  0  0  0  0  0  0  0  0
    8.2356   -4.8438   -1.1749 C   0  0  0  0  0  0  0  0  0  0  0  0
    8.7635   -5.9759   -0.4402 C   0  0  0  0  0  0  0  0  0  0  0  0
    7.7259   -6.7514    0.2125 C   0  0  0  0  0  0  0  0  0  0  0  0
    6.3534   -6.4563    0.1016 C   0  0  0  0  0  0  0  0  0  0  0  0
    8.1802   -8.1479    1.1902 S   0  0  0  0  0  0  0  0  0  0  0  0
    9.1932   -7.8323    2.2174 O   0  0  0  0  0  0  0  0  0  0  0  0
    6.9382   -8.8372    1.6309 O   0  0  0  0  0  0  0  0  0  0  0  0
    8.9684   -9.2960    0.0297 C   0  0  0  0  0  0  0  0  0  0  0  0
    8.2201  -10.3668   -0.4632 C   0  0  0  0  0  0  0  0  0  0  0  0
    8.8103  -11.2832   -1.3399 C   0  0  0  0  0  0  0  0  0  0  0  0
   10.1418  -11.0883   -1.6941 C   0  0  0  0  0  0  0  0  0  0  0  0
   10.9014  -10.0260   -1.2157 C   0  0  0  0  0  0  0  0  0  0  0  0
   10.3056   -9.1143   -0.3382 C   0  0  0  0  0  0  0  0  0  0  0  0
   10.7293  -11.9866   -2.5495 F   0  0  0  0  0  0  0  0  0  0  0  0
   10.0044   -6.2478   -0.3973 O   0  5  0  0  0  0  0  0  0  0  0  0
    4.4242   -3.4240    1.6383 C   0  0  0  0  0  0  0  0  0  0  0  0
    2.9297    0.4313   -0.8885 O   0  0  0  0  0  0  0  0  0  0  0  0
    2.7610    1.2631   -2.0809 C   0  0  0  0  0  0  0  0  0  0  0  0
    4.1162    1.4326   -2.7706 C   0  0  0  0  0  0  0  0  0  0  0  0
    2.2886    2.5947   -1.4947 C   0  0  0  0  0  0  0  0  0  0  0  0
    1.6145    0.7343   -3.0471 C   0  0  0  0  0  0  0  0  0  0  0  0
    0.5138    0.5074   -2.4871 O   0  0  0  0  0  0  0  0  0  0  0  0
    1.9322    0.6443   -4.2673 O   0  5  0  0  0  0  0  0  0  0  0  0
    2.8816   -4.5799   -3.3807 H   0  0  0  0  0  0  0  0  0  0  0  0
    3.4472   -3.1355   -4.2252 H   0  0  0  0  0  0  0  0  0  0  0  0
    4.6134   -4.2942   -3.5604 H   0  0  0  0  0  0  0  0  0  0  0  0
    2.9826   -1.2298   -3.0834 H   0  0  0  0  0  0  0  0  0  0  0  0
    3.6518   -0.8679    1.1377 H   0  0  0  0  0  0  0  0  0  0  0  0
    3.8889   -5.5593    0.0511 H   0  0  0  0  0  0  0  0  0  0  0  0
    4.0422   -5.5992   -1.6838 H   0  0  0  0  0  0  0  0  0  0  0  0
    6.5601   -3.6817   -1.8156 H   0  0  0  0  0  0  0  0  0  0  0  0
    8.9696   -4.2095   -1.6683 H   0  0  0  0  0  0  0  0  0  0  0  0
    5.6458   -7.1026    0.6157 H   0  0  0  0  0  0  0  0  0  0  0  0
    7.1876  -10.4768   -0.1469 H   0  0  0  0  0  0  0  0  0  0  0  0
    8.2591  -12.1290   -1.7409 H   0  0  0  0  0  0  0  0  0  0  0  0
   11.9344   -9.9137   -1.5326 H   0  0  0  0  0  0  0  0  0  0  0  0
   10.8351   -8.2447    0.0340 H   0  0  0  0  0  0  0  0  0  0  0  0
    3.7415   -4.2276    1.9444 H   0  0  0  0  0  0  0  0  0  0  0  0
    5.4254   -3.8649    1.5938 H   0  0  0  0  0  0  0  0  0  0  0  0
    4.4151   -2.6625    2.4245 H   0  0  0  0  0  0  0  0  0  0  0  0
    4.0113    2.1238   -3.6105 H   0  0  0  0  0  0  0  0  0  0  0  0
    4.4857    0.4890   -3.1751 H   0  0  0  0  0  0  0  0  0  0  0  0
    4.8552    1.8255   -2.0593 H   0  0  0  0  0  0  0  0  0  0  0  0
    2.1388    3.3217   -2.3007 H   0  0  0  0  0  0  0  0  0  0  0  0
    3.0264    2.9943   -0.7862 H   0  0  0  0  0  0  0  0  0  0  0  0
    1.3357    2.4359   -0.9848 H   0  0  0  0  0  0  0  0  0  0  0  0
  1  2  1  0  0  0  0
  1 34  1  0  0  0  0
  1 35  1  0  0  0  0
  1 36  1  0  0  0  0
  2  3  2  0  0  0  0
  2  7  1  0  0  0  0
  3  4  1  0  0  0  0
  3 37  1  0  0  0  0
  4  5  2  0  0  0  0
  4 27  1  0  0  0  0
  5  6  1  0  0  0  0
  5 38  1  0  0  0  0
  6  7  2  0  0  0  0
  6 26  1  0  0  0  0
  7  8  1  0  0  0  0
  8  9  1  0  0  0  0
  8 39  1  0  0  0  0
  8 40  1  0  0  0  0
  9 10  2  0  0  0  0
  9 14  1  0  0  0  0
 10 11  1  0  0  0  0
 10 41  1  0  0  0  0
 11 12  2  0  0  0  0
 11 42  1  0  0  0  0
 12 13  1  0  0  0  0
 12 25  1  0  0  0  0
 13 14  2  0  0  0  0
 13 15  1  0  0  0  0
 14 43  1  0  0  0  0
 15 16  2  0  0  0  0
 15 17  2  0  0  0  0
 15 18  1  0  0  0  0
 18 19  1  0  0  0  0
 18 23  2  0  0  0  0
 19 20  2  0  0  0  0
 19 44  1  0  0  0  0
 20 21  1  0  0  0  0
 20 45  1  0  0  0  0
 21 22  2  0  0  0  0
 21 24  1  0  0  0  0
 22 23  1  0  0  0  0
 22 46  1  0  0  0  0
 23 47  1  0  0  0  0
 26 48  1  0  0  0  0
 26 49  1  0  0  0  0
 26 50  1  0  0  0  0
 27 28  1  0  0  0  0
 28 29  1  0  0  0  0
 28 30  1  0  0  0  0
 28 31  1  0  0  0  0
 29 51  1  0  0  0  0
 29 52  1  0  0  0  0
 29 53  1  0  0  0  0
 30 54  1  0  0  0  0
 30 55  1  0  0  0  0
 30 56  1  0  0  0  0
 31 32  2  0  0  0  0
 31 33  1  0  0  0  0
M  CHG  2  25  -1  33  -1
M  END
$$$$
