52
1 1 C22H27N2O
C                     2.291751456286     6.397372427219     2.336321269269
C                     1.018713105601     5.542445991989     2.400570473619
C                     1.028708718058     4.487835658167     1.316678933778
C                     0.545763714702     4.759015192120     0.087669105998
C                    -0.020578225319     6.087056142706    -0.181620582674
C                    -0.270087121686     6.612884063807    -1.461777896165
C                    -0.884594464499     7.853895355553    -1.618559710211
C                    -1.268636368891     8.585575926284    -0.486187732509
C                    -1.009442667010     8.095653726697     0.794751487936
C                    -0.367735107558     6.864976694365     0.945559335783
O                    -0.149186385372     6.397600656059     2.209317548059
C                     0.486243211448     3.666875414722    -0.945770482782
N                    -0.747326991448     2.787094965269    -0.724246911530
C                    -0.761542157148     1.551623878455    -1.604752074465
C                    -1.166364104463     1.899862060239    -3.031038674248
N                    -2.474274635361     2.551006764979    -3.036121511317
C                    -2.440481188184     3.795490173616    -2.282133438228
C                    -2.079237698557     3.514070859549    -0.831396840439
C                    -3.113737774343     2.595458878366    -4.321047007815
C                    -3.497948914898     1.382322483036    -4.915004732630
C                    -4.120652112016     1.373846752196    -6.162280921622
C                    -4.388990488233     2.576654253970    -6.827396444484
C                    -4.023906113992     3.784385389850    -6.231712993409
C                    -3.380532514177     3.798949611421    -4.988024916953
C                     0.826325729937     4.921069738477     3.782077949665
H                     3.175692016506     5.775457915816     2.506983771975
H                     2.394578896402     6.877936836932     1.359644207373
H                     2.255882660757     7.171698775513     3.107967118027
H                     1.466307536669     3.519403341259     1.557597955781
H                     0.043387784555     6.068139380368    -2.348358833704
H                    -1.056027449224     8.254736905974    -2.612848054267
H                    -1.753522246086     9.550579942174    -0.601921693666
H                    -1.282270482138     8.656964752518     1.683126680185
H                     1.339719568827     2.991655819242    -0.859938785895
H                     0.441478634793     4.034900315596    -1.967478646727
H                    -0.669635013748     2.477088074795     0.249510938992
H                     0.232709144503     1.102604669497    -1.560555574838
H                    -1.491526609083     0.868224769662    -1.165913864617
H                    -0.393246560964     2.518638063940    -3.519840446926
H                    -1.215913935382     0.965056494394    -3.591027217426
H                    -1.752907426835     4.544374427760    -2.706378628681
H                    -3.436293144556     4.245232826030    -2.278995295658
H                    -2.819737631933     2.847622201707    -0.384360654285
H                    -2.005606071135     4.428360849365    -0.244258146078
H                    -3.333527432963     0.447216116989    -4.385553810340
H                    -4.416201738217     0.427646588102    -6.606828323853
H                    -4.884520817938     2.569599501528    -7.793629881913
H                    -4.230513179820     4.724470461473    -6.735648620467
H                    -3.094867230342     4.753205895285    -4.557209044201
H                    -0.093400719619     4.330166218143     3.818544101597
H                     0.759852541940     5.708173980707     4.536795086073
H                     1.673636029789     4.275171312479     4.029663472084
