
  -OEChem-12102412483D

 52 55  0     0  0  0  0  0  0999 V2000
   -1.1720    8.2572    0.7702 C   0  0  0  0  0  0  0  0  0  0  0  0
    0.0106    7.2966    0.8670 C   0  0  0  0  0  0  0  0  0  0  0  0
    0.0558    6.3575   -0.3183 C   0  0  0  0  0  0  0  0  0  0  0  0
    0.5477    5.1129   -0.1809 C   0  0  0  0  0  0  0  0  0  0  0  0
    0.9664    4.6460    1.1461 C   0  0  0  0  0  0  0  0  0  0  0  0
    1.7269    3.4838    1.3833 C   0  0  0  0  0  0  0  0  0  0  0  0
    1.9825    3.0475    2.6832 C   0  0  0  0  0  0  0  0  0  0  0  0
    1.4685    3.7718    3.7678 C   0  0  0  0  0  0  0  0  0  0  0  0
    0.7317    4.9384    3.5576 C   0  0  0  0  0  0  0  0  0  0  0  0
    0.4982    5.3847    2.2544 C   0  0  0  0  0  0  0  0  0  0  0  0
   -0.2457    6.5116    2.0762 O   0  0  0  0  0  0  0  0  0  0  0  0
    0.5723    4.1479   -1.3289 C   0  0  0  0  0  0  0  0  0  0  0  0
   -0.2995    2.9337   -1.0114 N   0  3  0  0  0  0  0  0  0  0  0  0
   -0.1411    1.8046   -2.0068 C   0  0  0  0  0  0  0  0  0  0  0  0
   -0.8665    2.1194   -3.3083 C   0  0  0  0  0  0  0  0  0  0  0  0
   -2.2787    2.3871   -3.0421 N   0  0  0  0  0  0  0  0  0  0  0  0
   -2.4411    3.5371   -2.1660 C   0  0  0  0  0  0  0  0  0  0  0  0
   -1.7675    3.2676   -0.8275 C   0  0  0  0  0  0  0  0  0  0  0  0
   -3.1260    2.3330   -4.2002 C   0  0  0  0  0  0  0  0  0  0  0  0
   -3.2870    1.0977   -4.8484 C   0  0  0  0  0  0  0  0  0  0  0  0
   -4.0980    0.9944   -5.9776 C   0  0  0  0  0  0  0  0  0  0  0  0
   -4.7779    2.1173   -6.4655 C   0  0  0  0  0  0  0  0  0  0  0  0
   -4.6330    3.3423   -5.8134 C   0  0  0  0  0  0  0  0  0  0  0  0
   -3.8044    3.4571   -4.6904 C   0  0  0  0  0  0  0  0  0  0  0  0
    1.3389    8.0471    1.0263 C   0  0  0  0  0  0  0  0  0  0  0  0
   -1.0556    8.9142   -0.0965 H   0  0  0  0  0  0  0  0  0  0  0  0
   -2.1130    7.7080    0.6744 H   0  0  0  0  0  0  0  0  0  0  0  0
   -1.2232    8.8761    1.6690 H   0  0  0  0  0  0  0  0  0  0  0  0
   -0.3058    6.7242   -1.2766 H   0  0  0  0  0  0  0  0  0  0  0  0
    2.1749    2.9414    0.5511 H   0  0  0  0  0  0  0  0  0  0  0  0
    2.5864    2.1615    2.8531 H   0  0  0  0  0  0  0  0  0  0  0  0
    1.6598    3.4363    4.7829 H   0  0  0  0  0  0  0  0  0  0  0  0
    0.3428    5.5197    4.3880 H   0  0  0  0  0  0  0  0  0  0  0  0
    1.5722    3.7492   -1.5196 H   0  0  0  0  0  0  0  0  0  0  0  0
    0.2024    4.6011   -2.2458 H   0  0  0  0  0  0  0  0  0  0  0  0
    0.0398    2.6012   -0.0995 H   0  0  0  0  0  0  0  0  0  0  0  0
    0.9282    1.6482   -2.1629 H   0  0  0  0  0  0  0  0  0  0  0  0
   -0.5751    0.9175   -1.5409 H   0  0  0  0  0  0  0  0  0  0  0  0
   -0.3790    2.9567   -3.8380 H   0  0  0  0  0  0  0  0  0  0  0  0
   -0.7723    1.2455   -3.9541 H   0  0  0  0  0  0  0  0  0  0  0  0
   -2.0571    4.4752   -2.6039 H   0  0  0  0  0  0  0  0  0  0  0  0
   -3.5042    3.6907   -1.9657 H   0  0  0  0  0  0  0  0  0  0  0  0
   -2.2188    2.3980   -0.3463 H   0  0  0  0  0  0  0  0  0  0  0  0
   -1.8246    4.1265   -0.1589 H   0  0  0  0  0  0  0  0  0  0  0  0
   -2.7977    0.2126   -4.4499 H   0  0  0  0  0  0  0  0  0  0  0  0
   -4.2164    0.0310   -6.4657 H   0  0  0  0  0  0  0  0  0  0  0  0
   -5.4185    2.0333   -7.3383 H   0  0  0  0  0  0  0  0  0  0  0  0
   -5.1581    4.2199   -6.1801 H   0  0  0  0  0  0  0  0  0  0  0  0
   -3.6985    4.4267   -4.2144 H   0  0  0  0  0  0  0  0  0  0  0  0
    2.1727    7.3507    1.1500 H   0  0  0  0  0  0  0  0  0  0  0  0
    1.2926    8.7012    1.9016 H   0  0  0  0  0  0  0  0  0  0  0  0
    1.5349    8.6610    0.1420 H   0  0  0  0  0  0  0  0  0  0  0  0
  1  2  1  0  0  0  0
  1 26  1  0  0  0  0
  1 27  1  0  0  0  0
  1 28  1  0  0  0  0
  2  3  1  0  0  0  0
  2 11  1  0  0  0  0
  2 25  1  0  0  0  0
  3  4  2  0  0  0  0
  3 29  1  0  0  0  0
  4  5  1  0  0  0  0
  4 12  1  0  0  0  0
  5  6  2  0  0  0  0
  5 10  1  0  0  0  0
  6  7  1  0  0  0  0
  6 30  1  0  0  0  0
  7  8  2  0  0  0  0
  7 31  1  0  0  0  0
  8  9  1  0  0  0  0
  8 32  1  0  0  0  0
  9 10  2  0  0  0  0
  9 33  1  0  0  0  0
 10 11  1  0  0  0  0
 12 13  1  0  0  0  0
 12 34  1  0  0  0  0
 12 35  1  0  0  0  0
 13 14  1  0  0  0  0
 13 18  1  0  0  0  0
 13 36  1  0  0  0  0
 14 15  1  0  0  0  0
 14 37  1  0  0  0  0
 14 38  1  0  0  0  0
 15 16  1  0  0  0  0
 15 39  1  0  0  0  0
 15 40  1  0  0  0  0
 16 17  1  0  0  0  0
 16 19  1  0  0  0  0
 17 18  1  0  0  0  0
 17 41  1  0  0  0  0
 17 42  1  0  0  0  0
 18 43  1  0  0  0  0
 18 44  1  0  0  0  0
 19 20  1  0  0  0  0
 19 24  2  0  0  0  0
 20 21  2  0  0  0  0
 20 45  1  0  0  0  0
 21 22  1  0  0  0  0
 21 46  1  0  0  0  0
 22 23  2  0  0  0  0
 22 47  1  0  0  0  0
 23 24  1  0  0  0  0
 23 48  1  0  0  0  0
 24 49  1  0  0  0  0
 25 50  1  0  0  0  0
 25 51  1  0  0  0  0
 25 52  1  0  0  0  0
M  CHG  1  13   1
M  END
$$$$
