52
1 1 C22H27N2O
C                    -1.171990258357     8.257211089898     0.770189844122
C                     0.010576590825     7.296637144528     0.867045672877
C                     0.055821289963     6.357484578401    -0.318314628716
C                     0.547670964622     5.112868981297    -0.180896218449
C                     0.966436196969     4.646021030097     1.146145804316
C                     1.726930191648     3.483791826398     1.383275753446
C                     1.982543983241     3.047487623957     2.683217981532
C                     1.468536769754     3.771820849581     3.767789921555
C                     0.731689767831     4.938352962517     3.557560314922
C                     0.498192297454     5.384710388938     2.254377220386
O                    -0.245728247995     6.511634646009     2.076190907849
C                     0.572272085056     4.147914110094    -1.328913114006
N                    -0.299510988590     2.933714491912    -1.011352065388
C                    -0.141092720478     1.804622306936    -2.006828327613
C                    -0.866470462540     2.119403450079    -3.308344863193
N                    -2.278676508723     2.387116873302    -3.042088349499
C                    -2.441067214903     3.537126835446    -2.166024898983
C                    -1.767538673992     3.267638430148    -0.827510906969
C                    -3.126009002267     2.333021981655    -4.200172730362
C                    -3.286998082061     1.097740255614    -4.848419988786
C                    -4.098010428958     0.994419008492    -5.977635376800
C                    -4.777894091829     2.117308913762    -6.465521619986
C                    -4.632985093477     3.342297613878    -5.813423200327
C                    -3.804407359960     3.457070859100    -4.690376632144
C                     1.338879738135     8.047142533057     1.026275762330
H                    -1.055576219817     8.914171520976    -0.096472265237
H                    -2.112950271581     7.708048369428     0.674370461853
H                    -1.223195667806     8.876140422696     1.668965707523
H                    -0.305753898523     6.724234871295    -1.276611117082
H                     2.174927453577     2.941368733341     0.551148320367
H                     2.586377737047     2.161507048547     2.853090592000
H                     1.659776206587     3.436270569857     4.782879375079
H                     0.342810723349     5.519738659205     4.387985326705
H                     1.572199479054     3.749193771814    -1.519635460035
H                     0.202415384350     4.601093630906    -2.245782191836
H                     0.039785759951     2.601231534971    -0.099473943588
H                     0.928235418016     1.648177467645    -2.162856249347
H                    -0.575071035617     0.917464793783    -1.540898779337
H                    -0.378991680515     2.956665463175    -3.838049901672
H                    -0.772306251334     1.245455020330    -3.954122652662
H                    -2.057133818298     4.475235181474    -2.603864117510
H                    -3.504233942046     3.690670995148    -1.965745676030
H                    -2.218827719802     2.398012430982    -0.346255391818
H                    -1.824636720395     4.126539060315    -0.158856664972
H                    -2.797735771748     0.212558933588    -4.449884571481
H                    -4.216372215349     0.031043604261    -6.465650564597
H                    -5.418537788125     2.033304148277    -7.338289079662
H                    -5.158112204031     4.219887391390    -6.180086676407
H                    -3.698472125587     4.426713203202    -4.214431743685
H                     2.172656071527     7.350662835671     1.150046152573
H                     1.292576240067     8.701230770155     1.901641820785
H                     1.534869535286     8.660968369707     0.141961290785
