30   
torsion grid (-165,)
C        5.7570539711    1.4634241883   -0.5880822017
C        4.6389498064    2.0796399271   -0.0236249049
C        5.6942076314    0.1008410095   -0.9083266023
C        3.4637262324    1.3585231566    0.2219980105
C        4.5311509210   -0.6289867323   -0.6696112857
C        3.4090971734   -0.0042273321   -0.1025508339
C       -1.8845081589   -0.2664580986    0.1481199452
C       -1.2131579440   -0.9380022094    1.3540318550
C       -1.0190993419    0.8757423620   -0.4013307961
C        0.2026854977   -1.4200847229    1.0053547047
C        0.3993170387    0.4127029414   -0.7361759897
C        1.0509030405   -0.2642297228    0.4826803726
O        0.3202304303   -0.5056973270   -1.8309514299
O        2.3277286495   -0.8259068442    0.1130986746
H        6.6626362709    2.0327744216   -0.7770413823
H        4.6709283081    3.1360696202    0.2308564476
H        6.5554284394   -0.3965592158   -1.3471438146
H        2.6141649605    1.8673450793    0.6619418622
H        4.4705148910   -1.6872664290   -0.9078123531
H       -2.0387856631   -1.0078413666   -0.6431586271
H       -2.8722156715    0.1176659290    0.4274009654
H       -1.8137900066   -1.7850407559    1.7033187392
H       -1.1624892260   -0.2256564718    2.1897198573
H       -0.9528238227    1.6855403799    0.3376684810
H       -1.4656599673    1.3029494210   -1.3051702032
H        0.1529744105   -2.1941257974    0.2327791124
H        0.6971572668   -1.8581095188    1.8785650808
H        1.0034505081    1.2797402801   -1.0368586879
H        1.1873665558    0.4736411474    1.2829042253
H        1.1911395364   -0.9311297373   -1.9054701118
30   
torsion grid (-150,)
C        5.8476356209    1.4194810534   -0.3998177197
C        4.6732809241    2.0799632967   -0.0360328987
C        5.7978217040    0.0492282500   -0.6894856842
C        3.4534271845    1.3954407550    0.0419332563
C        4.5925553798   -0.6454218122   -0.6114840584
C        3.4140877802    0.0231493069   -0.2425724469
C       -1.9036653477   -0.2814389943    0.2750935669
C       -1.1055580556   -0.9395972924    1.4091642092
C       -1.1201174564    0.8802114911   -0.3513813834
C        0.2775668565   -1.3974351974    0.9226129635
C        0.2671406684    0.4471060801   -0.8266738548
C        1.0472431397   -0.2290678286    0.3126851676
O        0.1004713845   -0.4605381641   -1.9198307748
O        2.2865806921   -0.7611869261   -0.2013908656
H        6.7873158565    1.9610728781   -0.4598009302
H        4.6942288274    3.1439729983    0.1859575763
H        6.7027194655   -0.4819447898   -0.9736747384
H        2.5580295562    1.9420707753    0.3130923324
H        4.5395129687   -1.7092647278   -0.8248000172
H       -2.1174365840   -1.0252335589   -0.4999840811
H       -2.8679264680    0.0809372734    0.6491815634
H       -1.6543937554   -1.7961642779    1.8158177872
H       -0.9853716926   -0.2249414740    2.2357309586
H       -0.9976424284    1.6883687421    0.3822420035
H       -1.6625689718    1.3012543500   -1.2042296819
H        0.1647680190   -2.1777780793    0.1627787043
H        0.8661415475   -1.8202342843    1.7433163341
H        0.8276454348    1.3280518787   -1.1716503842
H        1.2599131213    0.5068098586    1.0969346103
H        0.9708614312   -0.8620958766   -2.0836280764
30   
torsion grid (-135,)
C        5.9061369394    1.3512771384   -0.2149678118
C        4.7263926522    2.0734412034   -0.0229798379
C        5.8294739944   -0.0204580439   -0.4887540094
C        3.4774675094    1.4451623568   -0.1002267405
C        4.5926091918   -0.6604415125   -0.5594599536
C        3.4106784661    0.0689103719   -0.3606684065
C       -1.9004044466   -0.3338924735    0.3835252424
C       -0.9815261089   -0.9459327131    1.4500980085
C       -1.2245464884    0.8553313461   -0.3129312668
C        0.3717006771   -1.3540423962    0.8483188908
C        0.1337489897    0.4781166055   -0.9049017779
C        1.0350500131   -0.1645583643    0.1589366184
O       -0.0877591244   -0.4329519814   -1.9849001298
O        2.2415257453   -0.6439830376   -0.4783998370
H        6.8704882738    1.8479064688   -0.1562682212
H        4.7688690877    3.1407670470    0.1791699366
H        6.7382159955   -0.5973034797   -0.6409858520
H        2.5761760959    2.0348272746    0.0257266910
H        4.5177758876   -1.7252186269   -0.7607556943
H       -2.1458927869   -1.0935444682   -0.3664433332
H       -2.8446685845   -0.0099529819    0.8357363056
H       -1.4578721615   -1.8184111736    1.9108025036
H       -0.8196041849   -0.2165080880    2.2564310851
H       -1.0737663747    1.6723663227    0.4054030793
H       -1.8561345183    1.2475561084   -1.1167717070
H        0.2250863363   -2.1493340422    0.1098685928
H        1.0481598758   -1.7404792828    1.6177707977
H        0.6313857995    1.3816348073   -1.2889435608
H        1.2938913042    0.5864343650    0.9134067458
H        0.7843708835   -0.7849931589   -2.2327546542
30   
torsion grid (-120,)
C        5.9024336409    1.4020914330   -0.0942931188
C        4.9460296115    1.5613512252    0.9127555509
C        5.6212878160    0.5615784193   -1.1778823084
C        3.7188197265    0.8935305270    0.8459699102
C        4.3958354715   -0.1018255172   -1.2618236045
C        3.4395052570    0.0659456195   -0.2512265951
C       -1.9010153922   -0.3579750320    0.3068297953
C       -0.9872939553   -0.4175272066    1.5389429781
C       -1.2764504330    0.4981969491   -0.8038403291
C        0.4128808560   -0.9276585835    1.1651193479
C        0.1261530213    0.0191268087   -1.1781032981
C        1.0256303941   -0.0678213569    0.0636438309
O        0.0081385021   -1.2620922783   -1.8023972922
O        2.2766054054   -0.6571864218   -0.3692630963
H        6.8547006686    1.9214260324   -0.0339885072
H        5.1566886191    2.1999137790    1.7669874203
H        6.3562757605    0.4270654247   -1.9674298786
H        2.9997775954    1.0022333000    1.6519355473
H        4.1624951349   -0.7509361867   -2.1011247811
H       -2.0662452030   -1.3716485560   -0.0739144885
H       -2.8816288504    0.0478659414    0.5803573680
H       -1.4228630673   -1.0649591090    2.3080385529
H       -0.9065375652    0.5847710076    1.9835141141
H       -1.2084681903    1.5438837681   -0.4754931989
H       -1.8991038031    0.4844288694   -1.7044219678
H        0.3483873729   -1.9586750756    0.8018428492
H        1.0783868114   -0.9313964479    2.0356481079
H        0.5861964681    0.7297277325   -1.8817364398
H        1.2047466034    0.9497013015    0.4258407658
H        0.9131383313   -1.6071716480   -1.8894015929
30   
torsion grid (-105,)
C        5.9409122273    1.3076688668    0.0763239488
C        4.8981525309    1.5241641540    0.9801378707
C        5.7172272845    0.4926775620   -1.0406818027
C        3.6412915979    0.9407075644    0.7817538906
C        4.4675251932   -0.0879999476   -1.2552950129
C        3.4225544304    0.1375890647   -0.3468663482
C       -1.8807442855   -0.4167876497    0.3975730346
C       -0.8716028045   -0.3948072053    1.5540131883
C       -1.3907149432    0.4374148503   -0.7800789124
C        0.5199950708   -0.8414780900    1.0806142718
C        0.0022531254    0.0212890902   -1.2525457521
C        0.9992443219    0.0222506423   -0.0842305019
O       -0.0957471708   -1.2825610751   -1.8320661682
O        2.2377924425   -0.4994241005   -0.6173082886
H        6.9136615141    1.7627005028    0.2398252075
H        5.0595965920    2.1449203020    1.8579109662
H        6.5183117223    0.3130404519   -1.7532416559
H        2.8557030353    1.1009615695    1.5123430019
H        4.2791840652   -0.7159501699   -2.1215108728
H       -2.0213082574   -1.4481357189    0.0564365326
H       -2.8571250615   -0.0534261704    0.7377836406
H       -1.2095149557   -1.0432475343    2.3699055126
H       -0.8104057885    0.6218860578    1.9680050731
H       -1.3540498894    1.4944198544   -0.4847138578
H       -2.0792878919    0.3647853469   -1.6282642918
H        0.4814757166   -1.8814872397    0.7404674898
H        1.2480393848   -0.7950328571    1.8981177342
H        0.3661984247    0.7330464674   -2.0088098696
H        1.1450565941    1.0604155618    0.2330952693
H        0.8147623880   -1.5750671916   -2.0068640850
30   
torsion grid (-90,)
C        5.9662036859    1.1747091608    0.2263060263
C        4.8643604013    1.4960592666    1.0207795642
C        5.7799106641    0.3663462874   -0.9030795086
C        3.5840710787    1.0241211649    0.7047112291
C        4.5112499419   -0.1069164083   -1.2322951457
C        3.4058433104    0.2222643242   -0.4316926878
C       -1.8269652808   -0.4836144180    0.4790537254
C       -0.7404923294   -0.3832247121    1.5587964370
C       -1.4745698986    0.3763142239   -0.7429933479
C        0.6375702935   -0.7540832618    0.9900013423
C       -0.0942176105    0.0397962853   -1.3069131224
C        0.9777369408    0.1277765211   -0.2114940915
O       -0.1495681550   -1.2785189655   -1.8592006610
O        2.2046036808   -0.2992142844   -0.8381160314
H        6.9551661422    1.5443133383    0.4817875290
H        4.9933155800    2.1166211431    1.9040666386
H        6.6266085158    0.1057955740   -1.5331482813
H        2.7512796549    1.2773099438    1.3505293792
H        4.3523394913   -0.7300765185   -2.1078423313
H       -1.9306022457   -1.5273996281    0.1634722545
H       -2.7962264908   -0.1713306948    0.8841732504
H       -0.9792160705   -1.0380635185    2.4040740512
H       -0.7110164444    0.6414828870    1.9562705737
H       -1.4850511846    1.4390706169   -0.4670617072
H       -2.2142886715    0.2440709445   -1.5392554202
H        0.6327786574   -1.7964875999    0.6550574572
H        1.4157673565   -0.6632792941    1.7548418032
H        0.1698893537    0.7581541956   -2.0972104573
H        1.0653825408    1.1795140423    0.0861172780
H        0.7607341621   -1.5143440061   -2.1050950178
30   
torsion grid (-75,)
C        5.9615794602    1.0216396624    0.3545313902
C        4.8405673292    1.4947137382    1.0388092880
C        5.7784388265    0.1973356589   -0.7636776257
C        3.5459807814    1.1572238440    0.6246852148
C        4.4961364503   -0.1472801462   -1.1867956636
C        3.3724548531    0.3320068458   -0.4953729897
C       -1.7605484026   -0.5828514649    0.5385420812
C       -0.6271303098   -0.3982103280    1.5569994994
C       -1.5485130844    0.3084412987   -0.6933531653
C        0.7434974474   -0.6531175253    0.9111956424
C       -0.1788272573    0.0888702219   -1.3352111013
C        0.9404267300    0.2605051460   -0.2996033037
O       -0.1571225143   -1.2272406302   -1.8949674153
O        2.1574107469   -0.0438506770   -1.0096551744
H        6.9614733789    1.2879091834    0.6851415838
H        4.9647572142    2.1345906676    1.9089111078
H        6.6394407245   -0.1804981291   -1.3092749302
H        2.6961315736    1.5394018171    1.1781128127
H        4.3413100254   -0.7843108907   -2.0530942497
H       -1.7957847361   -1.6301639216    0.2196481779
H       -2.7279168515   -0.3532083625    0.9996147460
H       -0.7641062063   -1.0733471817    2.4088655127
H       -0.6587759273    0.6239555535    1.9608367010
H       -1.6312420090    1.3655796395   -0.4083763726
H       -2.3175471953    0.1183694013   -1.4490462265
H        0.8037418122   -1.6908451274    0.5666570071
H        1.5496516092   -0.5042038460    1.6355251482
H       -0.0183833570    0.8296305743   -2.1324978670
H        0.9507419549    1.3147467761    0.0065594585
H        0.7558007435   -1.3886545494   -2.1868602366
30   
torsion grid (-60,)
C        5.9279011461    0.8499918528    0.4546153111
C        4.8367142206    1.4972993193    1.0398543653
C        5.7121945923    0.0046246754   -0.6407783298
C        3.5412271825    1.3090318739    0.5458561622
C        4.4246508957   -0.1963690850   -1.1388220134
C        3.3339033196    0.4549405275   -0.5461950685
C       -1.6752499311   -0.7046543267    0.5584794359
C       -0.5279425346   -0.4234995270    1.5382387808
C       -1.5954290787    0.2185739005   -0.6652502464
C        0.8381211856   -0.5385561732    0.8435644135
C       -0.2353956503    0.1391964722   -1.3577786625
C        0.8997547252    0.4028263938   -0.3602609241
O       -0.1077363526   -1.1615013527   -1.9384620408
O        2.1096858736    0.2432236735   -1.1326423825
H        6.9305593860    1.0008572011    0.8444990780
H        4.9882982974    2.1599764415    1.8882518072
H        6.5505179289   -0.5059079713   -1.1079548950
H        2.7097749474    1.8298222028    1.0085142260
H        4.2441340020   -0.8515210056   -1.9864580645
H       -1.6211480754   -1.7463199651    0.2240983942
H       -2.6424024598   -0.5757414928    1.0576482560
H       -0.5683186923   -1.1178431903    2.3847104833
H       -0.6421933656    0.5863467280    1.9576855724
H       -1.7683965292    1.2591340719   -0.3605278676
H       -2.3697414041   -0.0350364792   -1.3964785826
H        0.9860129707   -1.5632383823    0.4855398822
H        1.6474811135   -0.3190807452    1.5447013945
H       -0.1747414166    0.9016878149   -2.1483533074
H        0.8171247092    1.4477279085   -0.0295127052
H        0.8091844686   -1.2313713240   -2.2536476501
30   
torsion grid (-45,)
C        5.8701323305    0.6786307938    0.5142825975
C        4.8629417196    1.5056276425    1.0228218602
C        5.5782655553   -0.1869459523   -0.5456332251
C        3.5746882641    1.4729389903    0.4817730189
C        4.2905356307   -0.2349093947   -1.0855139394
C        3.2870708083    0.5938374484   -0.5712398246
C       -1.5747486745   -0.8386275711    0.5566304748
C       -0.4516122992   -0.4441003641    1.5247086244
C       -1.6170473383    0.1074943334   -0.6509274037
C        0.9113641218   -0.3978799363    0.8153367517
C       -0.2675111030    0.1879005668   -1.3629079772
C        0.8509518173    0.5545791352   -0.3792695516
O       -0.0071757488   -1.0807684528   -1.9688304731
O        2.0558663181    0.5514890419   -1.1859138532
H        6.8702538431    0.7098220597    0.9374582734
H        5.0801155548    2.1871793728    1.8414772250
H        6.3527752427   -0.8333874573   -0.9505253786
H        2.8014545764    2.1287769892    0.8707390286
H        4.0488174293   -0.9058042156   -1.9051960880
H       -1.4093154057   -1.8621944652    0.2034169423
H       -2.5422064274   -0.8269921179    1.0714808213
H       -0.4024223564   -1.1480762221    2.3627290229
H       -0.6713528767    0.5418928789    1.9584930704
H       -1.8975764812    1.1176809552   -0.3248989692
H       -2.3703822272   -0.2171906154   -1.3759468031
H        1.1734696531   -1.3977610171    0.4515369867
H        1.6939793700   -0.0907621945    1.5130647043
H       -0.3022590007    0.9656341976   -2.1401377095
H        0.6669883660    1.5794744810   -0.0247464695
H        0.9088714960   -1.0400502509   -2.2923688907
30   
torsion grid (-30,)
C        5.8151419070    0.4946104294    0.5633661916
C        4.9388894922    1.4931719064    1.0044085517
C        5.4080448732   -0.3820743231   -0.4475520283
C        3.6665934072    1.6169178698    0.4408705839
C        4.1314761638   -0.2720340759   -1.0077797651
C        3.2608707313    0.7268057271   -0.5620865617
C       -1.4510496597   -0.9702214867    0.4945075997
C       -0.3961638834   -0.4623550940    1.4858230108
C       -1.5822010719   -0.0170584137   -0.7005881555
C        0.9658743382   -0.2568373129    0.8030717892
C       -0.2403453146    0.2266854728   -1.3894421450
C        0.8203366190    0.6938587729   -0.3844064706
O        0.1683728324   -0.9910720954   -2.0173384282
O        2.0318994112    0.8524626130   -1.1764958165
H        6.8055026030    0.4035178696    1.0008983605
H        5.2494627612    2.1840065691    1.7842275852
H        6.0822295306   -1.1591845302   -0.7985403601
H        2.9878249744    2.3996392233    0.7687765921
H        3.8020884066   -0.9513028828   -1.7893088294
H       -1.1636549611   -1.9630406870    0.1315916454
H       -2.4212509000   -1.0769494709    0.9930578699
H       -0.2817117322   -1.1648576327    2.3187245723
H       -0.7327836833    0.4882312511    1.9234551836
H       -1.9796318320    0.9497830911   -0.3648241886
H       -2.2834293572   -0.4127076828   -1.4424292941
H        1.3476798552   -1.2193755592    0.4446684041
H        1.6936525977    0.1340066143    1.5184031075
H       -0.3522762433    1.0121737775   -2.1514968265
H        0.5261713256    1.6875368332   -0.0155510154
H        1.0722383067   -0.8301456119   -2.3380154100
30   
torsion grid (-15,)
C        5.7499261340    0.3776571804    0.5325061959
C        5.0967091551    1.5756359671    0.8433085722
C        5.1223428273   -0.5582630341   -0.2966099969
C        3.8226053373    1.8370156261    0.3311823612
C        3.8468458182   -0.3027374563   -0.8091954438
C        3.1963921815    0.8946362586   -0.4925492842
C       -1.3482509697   -1.1166532877    0.4299350257
C       -0.3820768209   -0.5407349598    1.4735210747
C       -1.5524323773   -0.1313246807   -0.7284332910
C        0.9676897018   -0.1731979972    0.8366466968
C       -0.2300607344    0.2961498350   -1.3643576794
C        0.7513760124    0.8153344709   -0.3068657899
O        0.3250508060   -0.8288062696   -2.0528942736
O        1.9594489602    1.1824117849   -1.0399402667
H        6.7411204111    0.1767110883    0.9298963681
H        5.5811800941    2.3100378955    1.4818498583
H        5.6243683312   -1.4898905314   -0.5451068049
H        3.3062382684    2.7664914624    0.5555162975
H        3.3496483154   -1.0290179009   -1.4462884142
H       -0.9436054499   -2.0559716402    0.0369362359
H       -2.3138510936   -1.3504159078    0.8927504510
H       -0.2173710649   -1.2604494529    2.2829594002
H       -0.8283638934    0.3519914877    1.9339260078
H       -2.0648501596    0.7682909926   -0.3631126019
H       -2.1852344984   -0.5672676088   -1.5081892148
H        1.4433213916   -1.0811233455    0.4526035698
H        1.6431873961    0.2564507119    1.5822752837
H       -0.4133266508    1.1081174212   -2.0832447987
H        0.3418932255    1.7470663590    0.1090806056
H        1.1767104773   -0.5223940640   -2.4074439892
30   
torsion grid (0,)
C        5.7491033216    0.3212513507    0.4020503342
C        5.2366115550    1.5942182630    0.6741880812
C        4.9554577343   -0.6103750194   -0.2758482106
C        3.9387403778    1.9304148747    0.2785246408
C        3.6591183346   -0.2789451885   -0.6806930609
C        3.1472117375    0.9944255601   -0.3974337711
C       -1.3094742448   -1.2098992919    0.3564024761
C       -0.4604265870   -0.5804368610    1.4689166244
C       -1.5121710933   -0.2230710019   -0.8009517889
C        0.8990527611   -0.1156290254    0.9226417296
C       -0.1893950638    0.3167909636   -1.3456881592
C        0.6857923024    0.8771216307   -0.2174877273
O        0.4829869303   -0.7437653646   -2.0362753893
O        1.9000658631    1.3958704627   -0.8373600435
H        6.7572254220    0.0588054632    0.7112283269
H        5.8466268927    2.3273467370    1.1959752583
H        5.3465360818   -1.6005601714   -0.4959485863
H        3.5258798104    2.9153726343    0.4779356004
H        3.0440473331   -1.0054365578   -1.2031873775
H       -0.8092630567   -2.1099242626   -0.0188200605
H       -2.2828912316   -1.5238942683    0.7501078445
H       -0.2991726857   -1.2977906365    2.2811412796
H       -0.9984816982    0.2727444063    1.9052151437
H       -2.1129008315    0.6286802222   -0.4562071449
H       -2.0603127613   -0.6901914531   -1.6253807205
H        1.4508638708   -0.9888279183    0.5659086500
H        1.5010266583    0.3485561804    1.7106134047
H       -0.3927737043    1.1342347508   -2.0521082285
H        0.1744455113    1.7596855791    0.1909391500
H        1.2754771226   -0.3442361999   -2.4307489748
30   
torsion grid (15,)
C        5.7808841332    0.2957724152    0.2710708358
C        5.3532816783    1.6035072017    0.5258909040
C        4.8776556718   -0.6270342165   -0.2652121244
C        4.0352488970    1.9792256673    0.2564662539
C        3.5591053393   -0.2575503580   -0.5499920472
C        3.1324177260    1.0517488032   -0.2811080204
C       -1.2797872816   -1.2708228450    0.2955275226
C       -0.5480219469   -0.6160927210    1.4750182228
C       -1.4432050891   -0.2793487231   -0.8642257038
C        0.8270039662   -0.0867746219    1.0366113028
C       -0.1093339386    0.3220646643   -1.3115645848
C        0.6563072044    0.9026894362   -0.1145184570
O        0.6438210353   -0.7018745429   -1.9776189794
O        1.8769192497    1.5295966872   -0.5970121412
H        6.8045960060    0.0007959989    0.4847367076
H        6.0449784607    2.3329435057    0.9399298220
H        5.1989171933   -1.6448127162   -0.4726480829
H        3.6861238934    2.9896161123    0.4494503140
H        2.8694709669   -0.9819582562   -0.9692997975
H       -0.7103986988   -2.1415798180   -0.0493976502
H       -2.2636571428   -1.6358415538    0.6114614837
H       -0.4176703755   -1.3339814893    2.2922836138
H       -1.1560930134    0.2078023502    1.8738501542
H       -2.1021934863    0.5417380787   -0.5533360239
H       -1.9123449229   -0.7586565594   -1.7292770669
H        1.4436991607   -0.9339404197    0.7307176537
H        1.3438670805    0.4059546090    1.8671028643
H       -0.2994962247    1.1424348015   -2.0174841583
H        0.0629390410    1.7474883937    0.2597080517
H        1.3939932224   -0.2596092543   -2.4060163167
30   
torsion grid (30,)
C        5.8081101632    0.2993149815    0.1118090168
C        5.4303122428    1.6266892382    0.3478178194
C        4.8347303035   -0.6265774995   -0.2705905016
C        4.0973616701    2.0146425349    0.2118437242
C        3.4958549411   -0.2471934445   -0.4235075758
C        3.1209616850    1.0825685708   -0.1746366131
C       -1.2866492865   -1.3010312330    0.2262923576
C       -0.6573547319   -0.6568713761    1.4689930958
C       -1.3881716487   -0.2892074322   -0.9230556573
C        0.7349639357   -0.0907075199    1.1460379585
C       -0.0333161717    0.3328213924   -1.2725315953
C        0.6329798982    0.9033892466   -0.0108895039
O        0.7609581946   -0.6769279121   -1.9123776578
O        1.8576480074    1.6036088513   -0.3462157566
H        6.8447459404   -0.0064112518    0.2228763917
H        6.1739179546    2.3619923447    0.6451766180
H        5.1128890288   -1.6601346878   -0.4621020097
H        3.7870468513    3.0390973090    0.3964705468
H        2.7610832554   -0.9801003573   -0.7328266366
H       -0.6748665764   -2.1523052134   -0.0941140400
H       -2.2821438482   -1.6935213248    0.4627454733
H       -0.5741787690   -1.3883432344    2.2803652095
H       -1.3103871496    0.1471296324    1.8359831273
H       -2.0771581759    0.5176397189   -0.6418166920
H       -1.7921258514   -0.7586562314   -1.8255249187
H        1.3987818687   -0.9197579678    0.8960813252
H        1.1663310790    0.4161872717    2.0159956622
H       -0.1854841585    1.1657869473   -1.9725705071
H       -0.0179808701    1.7213163101    0.3238478010
H        1.5133898308   -0.2295806384   -2.3306444371
30   
torsion grid (45,)
C        5.6620851882    0.1250041723   -0.3484941979
C        5.0294815562    1.0884573025   -1.1398956505
C        5.0226865874   -0.3458126029    0.8039231295
C        3.7590485983    1.5600167620   -0.7943896581
C        3.7569441929    0.1261541061    1.1611701724
C        3.1092720598    1.0660773557    0.3473633832
C       -1.2759578219   -1.1590730379   -0.4226990777
C       -0.7109721946   -1.2066518795    1.0036267347
C       -1.2505785146    0.2705420343   -0.9822965380
C        0.6966872939   -0.5869753905    1.0862115749
C        0.1536477303    0.8737012197   -0.9009413681
C        0.6562378875    0.8442823588    0.5535821124
O        0.9830617283    0.1001776012   -1.7789228800
O        1.8869348545    1.6118615710    0.6764944736
H        6.6475207737   -0.2449544270   -0.6175544566
H        5.5236752956    1.4784342893   -2.0260406310
H        5.5162210302   -1.0784154346    1.4376372981
H        3.2697078267    2.3331349779   -1.3820070676
H        3.2772338432   -0.2198406185    2.0697861182
H       -0.6788838463   -1.8056990669   -1.0740305294
H       -2.3012815526   -1.5462540746   -0.4347798865
H       -0.6740492040   -2.2408282686    1.3639270826
H       -1.3838238705   -0.6633529450    1.6818701073
H       -1.9408354111    0.9099258763   -0.4169605160
H       -1.5770884157    0.2852182086   -2.0272266547
H        1.3966576773   -1.1860980069    0.4976399795
H        1.0421566037   -0.5878244924    2.1252707616
H        0.1347171512    1.9215441342   -1.2333654436
H       -0.0436387469    1.4314392042    1.1572092122
H        1.8918709349    0.4392645311   -1.7327006159
30   
torsion grid (60,)
C        5.6175793051    0.1723102230   -0.4743836042
C        4.9644081107    1.2066241083   -1.1517239359
C        5.0173561219   -0.4015906486    0.6523648289
C        3.7112198792    1.6505352439   -0.7161196918
C        3.7686969965    0.0399085661    1.0976018551
C        3.1021609870    1.0566380567    0.3997562240
C       -1.2557838404   -1.1601435422   -0.4212274200
C       -0.8087943962   -1.1458722625    1.0477451755
C       -1.1280859127    0.2313196258   -1.0591183685
C        0.6101314286   -0.5694143220    1.2047924778
C        0.2921535257    0.7856308492   -0.9066244032
C        0.6641898282    0.8269311037    0.5864229666
O        1.1461025869   -0.0739822285   -1.6728802120
O        1.8937283310    1.5622926632    0.8305835907
H        6.5893430417   -0.1758610974   -0.8131850907
H        5.4280860260    1.6720036511   -2.0177476674
H        5.5277764983   -1.1934424786    1.1947821965
H        3.1997633208    2.4676532749   -1.2182883276
H        3.3133228717   -0.3878309245    1.9841417818
H       -0.6348771096   -1.8649183043   -0.9840547028
H       -2.2915058662   -1.5106318544   -0.4972887593
H       -0.8422908268   -2.1586348132    1.4648224015
H       -1.5107876601   -0.5407154543    1.6384097143
H       -1.8317933932    0.9297806000   -0.5885078930
H       -1.3731543350    0.1921079490   -2.1254538675
H        1.3277229210   -1.2257974263    0.7042753935
H        0.8841863211   -0.5112143064    2.2638332530
H        0.3400236318    1.8105863995   -1.3022078744
H       -0.0753273705    1.4622763394    1.0850548412
H        2.0559373178    0.2621762559   -1.6220249432
30   
torsion grid (75,)
C        5.5774521676    0.2709835374   -0.6008447866
C        4.8940413743    1.3591338377   -1.1529665075
C        5.0240342060   -0.4098549043    0.4899884316
C        3.6585145381    1.7556420302   -0.6288448175
C        3.7927561971   -0.0182237572    1.0216185906
C        3.0980391675    1.0574680024    0.4508516017
C       -1.2686276857   -1.1336179154   -0.3984530405
C       -0.9319767066   -1.0564697413    1.0981798330
C       -1.0225449523    0.2107043739   -1.1007355896
C        0.4969083233   -0.5338031246    1.3304047964
C        0.4133086217    0.7015339751   -0.8800753233
C        0.6690691172    0.8150517474    0.6329547729
O        1.2664653247   -0.2478918579   -1.5324458567
O        1.9037838410    1.4972360720    0.9814809701
H        6.5352437155   -0.0384300609   -1.0098545102
H        5.3210636182    1.9035140136   -1.9913110641
H        5.5559745421   -1.2478631952    0.9332252420
H        3.1209450159    2.6059764724   -1.0393087678
H        3.3666608336   -0.5318501062    1.8771043824
H       -0.6461074989   -1.8990385661   -0.8734370121
H       -2.3130063839   -1.4369931995   -0.5350464318
H       -1.0468016472   -2.0413164372    1.5647534484
H       -1.6455886117   -0.3875205250    1.5994551330
H       -1.7187284431    0.9689481222   -0.7203480400
H       -1.1952808032    0.1208579788   -2.1780012068
H        1.2178244826   -1.2516073198    0.9267842081
H        0.6989042713   -0.4137031974    2.4001721577
H        0.5421292412    1.6950084715   -1.3334152696
H       -0.0825783895    1.5073576657    1.0277991370
H        2.1785596475    0.0832284626   -1.5005609083
30   
torsion grid (90,)
C        5.3178991067    0.7759201669   -1.3327150676
C        4.7472833884    1.8656375038   -0.6668765879
C        4.8761606245   -0.5206647922   -1.0423183626
C        3.7333201241    1.6643298725    0.2763226709
C        3.8646526737   -0.7296847580   -0.1014985174
C        3.2806140632    0.3660183140    0.5506051202
C       -1.5344515706   -0.5043379078   -0.3863298816
C       -1.0120727576   -1.4804980487    0.6782817115
C       -1.0669700565    0.9329678608   -0.1098614277
C        0.5152515528   -1.3818592948    0.8344302486
C        0.4611125277    1.0136933152    0.0020387663
C        0.9162937462    0.0639640890    1.1230013505
O        0.9747988695    0.6662824594   -1.2897884451
O        2.3139199342    0.1720232873    1.5128513507
H        6.1036465389    0.9339759011   -2.0662016993
H        5.0916777858    2.8748394062   -0.8776276194
H        5.3215381578   -1.3728053479   -1.5493453691
H        3.2882110582    2.5000230396    0.8085778146
H        3.5176865914   -1.7306793865    0.1351280520
H       -1.1696184337   -0.8099774777   -1.3725140888
H       -2.6294498474   -0.5362508391   -0.4237725031
H       -1.2945964699   -2.5081085710    0.4233816899
H       -1.4867460122   -1.2559476313    1.6438762631
H       -1.5116674807    1.3026881292    0.8226964266
H       -1.3880366397    1.6040677326   -0.9128896233
H        1.0030408350   -1.7172085879   -0.0871945558
H        0.8678361741   -2.0173822282    1.6533511969
H        0.7587400689    2.0399082914    0.2598725517
H        0.3990302246    0.3891139253    2.0330136256
H        1.9299482250    0.8367006252   -1.2966772211
30   
torsion grid (105,)
C        5.3374142732    0.9411018649   -1.3083965966
C        4.7402678162    1.9475042611   -0.5417709565
C        4.9216738811   -0.3865290163   -1.1510211145
C        3.7279683538    1.6348107537    0.3714701040
C        3.9091312988   -0.7066695394   -0.2420423807
C        3.3015875786    0.3069911520    0.5142126668
C       -1.5838046905   -0.4800779532   -0.3568080640
C       -1.1304229286   -1.4036650208    0.7833652616
C       -0.9937944740    0.9302498214   -0.2047158871
C        0.4010400026   -1.4162674925    0.9234085444
C        0.5372640600    0.8922766733   -0.1087143514
C        0.9255451662    0.0086001245    1.0885570894
O        1.0045613305    0.3890500589   -1.3662145251
O        2.3394711077   -0.0141358526    1.4442308303
H        6.1227954619    1.1873774463   -2.0175668793
H        5.0647406919    2.9792334226   -0.6503196331
H        5.3851958797   -1.1753383525   -1.7379291407
H        3.2666582896    2.4052047071    0.9825234174
H        3.5757017760   -1.7315974402   -0.1094342494
H       -1.2579631403   -0.8964814361   -1.3157044969
H       -2.6779931251   -0.4222767043   -0.3856790201
H       -1.4980668432   -2.4225160410    0.6175295218
H       -1.5742261491   -1.0612185776    1.7288771412
H       -1.3944531039    1.4133723693    0.6953669915
H       -1.2665554594    1.5567838755   -1.0599035563
H        0.8549869311   -1.8628520208    0.0318551663
H        0.7112952996   -2.0090706799    1.7898604755
H        0.9185818026    1.9101028519    0.0506091538
H        0.4526086817    0.4554643495    1.9714137998
H        1.9717075620    0.4650486219   -1.3888009251
30   
torsion grid (120,)
C        5.3696674443    1.0891257274   -1.2607252231
C        4.7065353038    2.0075564763   -0.4393108553
C        5.0161955198   -0.2640928352   -1.2104415609
C        3.6920701890    1.5818352305    0.4233694235
C        3.9977215278   -0.6965415956   -0.3553108629
C        3.3263358156    0.2285036198    0.4583570173
C       -1.6394640417   -0.4400541587   -0.3060746700
C       -1.2295170341   -1.3111665589    0.8898133640
C       -0.9341973935    0.9235513905   -0.2690800817
C        0.2988943226   -1.4341558995    0.9938735119
C        0.5909461776    0.7741116879   -0.1960338036
C        0.9444880804   -0.0515638900    1.0527044708
O        0.9991933569    0.1458202680   -1.4170049009
O        2.3669124863   -0.2233615520    1.3326337754
H        6.1581703128    1.4236923779   -1.9290792155
H        4.9835556525    3.0584219505   -0.4638702554
H        5.5308530182   -0.9856914109   -1.8397391107
H        3.1868512487    2.2843707423    1.0799473603
H        3.7108790097   -1.7428411224   -0.3025521067
H       -1.3738695286   -0.9501724703   -1.2379972153
H       -2.7258004390   -0.2944386452   -0.3164206666
H       -1.6777611256   -2.3076746112    0.8077704013
H       -1.6205836973   -0.8677461346    1.8164839102
H       -1.2744476666    1.5009678932    0.5999625688
H       -1.1754929040    1.5082450377   -1.1625233579
H        0.6946155651   -1.9663722915    0.1222461059
H        0.5880911078   -1.9970159225    1.8872241504
H        1.0448865760    1.7706970478   -0.1223634616
H        0.5507652122    0.4951948051    1.9191293822
H        1.9693738958    0.1584828384   -1.4586813476
30   
torsion grid (135,)
C        5.4013994499    1.2234239078   -1.1878735552
C        4.6678861688    2.0482010433   -0.3272136909
C        5.1102935574   -0.1437655153   -1.2463636076
C        3.6477273877    1.5165307410    0.4662978082
C        4.0836391525   -0.6823622975   -0.4637667324
C        3.3445228743    0.1490645953    0.3905665537
C       -1.6876622482   -0.4003617033   -0.2613562058
C       -1.3020202599   -1.2078652775    0.9854892440
C       -0.8866777562    0.9064555904   -0.3410371967
C        0.2155437419   -1.4355195098    1.0495983752
C        0.6258302272    0.6588999452   -0.2919311496
C        0.9686051625   -0.1081082530    0.9981596515
O        0.9716762848   -0.0768311493   -1.4714633373
O        2.3807033947   -0.4231282722    1.1839745458
H        6.1949251098    1.6410532773   -1.8012460460
H        4.8956155336    3.1094062010   -0.2662101156
H        5.6791126874   -0.7945819135   -1.9055204895
H        3.0914622409    2.1485064143    1.1528769707
H        3.8461401868   -1.7420724343   -0.4926494521
H       -1.4864813707   -0.9952314812   -1.1587158856
H       -2.7608073689   -0.1773257382   -0.2560042769
H       -1.8213831651   -2.1726708154    0.9920832313
H       -1.6292888053   -0.6702048532    1.8866464265
H       -1.1607634151    1.5660336180    0.4925035897
H       -1.1118610325    1.4444471897   -1.2674367618
H        0.5421945999   -2.0445196104    0.2006082760
H        0.4956238144   -1.9660392962    1.9655863999
H        1.1403731376    1.6273135614   -0.2990713695
H        0.6717146699    0.5236410965    1.8465099702
H        1.9405689016   -0.0970323517   -1.5419615425
30   
torsion grid (150,)
C        5.4511315612    1.3390264690   -1.0894725924
C        4.6492977609    2.0673522841   -0.2027650489
C        5.2127315391   -0.0274763837   -1.2689224162
C        3.6151114603    1.4414750130    0.4976070012
C        4.1722511941   -0.6603916429   -0.5810058694
C        3.3678609863    0.0746987345    0.3011463527
C       -1.7291421002   -0.3679784657   -0.1961443911
C       -1.3319335682   -1.1056119788    1.0892592864
C       -0.8562228404    0.8764627522   -0.4046249772
C        0.1681034600   -1.4318854329    1.0938291603
C        0.6395546128    0.5441351932   -0.3994914978
C        1.0068198853   -0.1684140500    0.9165595678
O        0.9031774646   -0.2805962267   -1.5406543636
O        2.3931055094   -0.6025322745    0.9911952984
H        6.2554323433    1.8305941030   -1.6295902776
H        4.8341227551    3.1274922292   -0.0486321107
H        5.8338849881   -0.6047539827   -1.9490089765
H        3.0056474777    2.0017876510    1.2010413734
H        3.9779939813   -1.7228724086   -0.7004670374
H       -1.6058987546   -1.0373984910   -1.0543866458
H       -2.7857407967   -0.0785324540   -0.1617071151
H       -1.9107158614   -2.0299043549    1.1951793969
H       -1.5755556592   -0.4821074378    1.9611539533
H       -1.0521643185    1.6075979796    0.3906725585
H       -1.0920840873    1.3635389893   -1.3562250564
H        0.4082130738   -2.1120998159    0.2708173758
H        0.4614331509   -1.9248030879    2.0267167872
H        1.2043260821    1.4796579534   -0.4879051192
H        0.8214039113    0.5303802847    1.7449534920
H        1.8669992673   -0.3562289219   -1.6375077900
30   
torsion grid (165,)
C        5.5323503992    1.4338983383   -0.9491792629
C        4.6316073615    2.0813291242   -0.0962475608
C        5.3605073762    0.0727978400   -1.2229426052
C        3.5659980736    1.3832907615    0.4781061542
C        4.2922567531   -0.6323841928   -0.6619370255
C        3.3898423991    0.0225794677    0.1872350630
C       -1.7804109633   -0.3179497876   -0.0984830487
C       -1.3260431961   -1.0118747289    1.1923502568
C       -0.8645455597    0.8657918037   -0.4361133443
C        0.1498463753   -1.4247951727    1.1047095411
C        0.6087337869    0.4573677787   -0.5133063185
C        1.0389800376   -0.2217355756    0.8016361843
O        0.7575613214   -0.4300275524   -1.6273075923
O        2.3912503940   -0.7409911477    0.7424148779
H        6.3591310738    1.9826040986   -1.3913584438
H        4.7607868901    3.1366695061    0.1304650694
H        6.0566634767   -0.4436371700   -1.8788663255
H        2.8812733121    1.8888795543    1.1523269492
H        4.1495248744   -1.6920310347   -0.8570234220
H       -1.7560239798   -1.0348963612   -0.9262547399
H       -2.8155865396    0.0293033151   -0.0028412107
H       -1.9438378885   -1.8948071963    1.3902402342
H       -1.4687200298   -0.3328768078    2.0449288390
H       -0.9662818840    1.6472727500    0.3285086510
H       -1.1448501673    1.3151364939   -1.3942972824
H        0.2875601406   -2.1568523009    0.3030612016
H        0.4852968417   -1.8897659155    2.0377814223
H        1.2145266820    1.3558245328   -0.6830543131
H        0.9703787422    0.5143303717    1.6154285641
H        1.6996055556   -0.6537376945   -1.7022743392
30   
torsion grid (180,)
C        5.6466459509    1.4750607634   -0.7779499795
C        4.6301408739    2.0822452623   -0.0355693130
C        5.5390603081    0.1175766674   -1.1030422519
C        3.5115832837    1.3525360457    0.3806768402
C        4.4250010788   -0.6191272083   -0.6988056591
C        3.4058398019   -0.0037889935    0.0420960524
C       -1.8363163290   -0.2757790842    0.0173600765
C       -1.2850844143   -0.9533342565    1.2792993749
C       -0.9216158931    0.8695695310   -0.4368451593
C        0.1616174884   -1.4229774701    1.0690338371
C        0.5249521225    0.4121455537   -0.6320286969
C        1.0542136842   -0.2584040108    0.6493141117
O        0.5539259136   -0.5064469118   -1.7297283704
O        2.3693026104   -0.8197293723    0.4344424990
H        6.5109076599    2.0500350868   -1.0980646364
H        4.7037712683    3.1342768896    0.2283057129
H        6.3228844351   -0.3700565288   -1.6770337557
H        2.7400682790    1.8404817104    0.9665013444
H        4.3294737493   -1.6745872371   -0.9389960677
H       -1.9112312959   -1.0127139881   -0.7893791013
H       -2.8470220525    0.1066768974    0.2001635132
H       -1.9111732769   -1.8075213945    1.5597037378
H       -1.3236531460   -0.2480838646    2.1215824652
H       -0.9303457666    1.6751665169    0.3095595559
H       -1.2761254388    1.3019587166   -1.3782146768
H        0.1964496152   -2.1846750363    0.2838735428
H        0.5668698580   -1.8726371848    1.9815936189
H        1.1469923455    1.2833480886   -0.8756061307
H        1.0961961011    0.4851332572    1.4562631083
H        1.4372637625   -0.9107861650   -1.7431194325
