24
0 1 C8H11NO3S
C                    -6.909994254769    -3.414794674777    26.105217076389
C                    -6.830029810205    -3.450100145290    27.507851370476
C                    -5.763745176228    -3.324693544403    25.326019419034
C                    -5.582446534386    -3.401123646128    28.114782885339
C                    -4.489723217402    -3.269117385200    25.922719340154
C                    -4.418920640141    -3.322175052472    27.332998736781
C                    -2.555566880799    -5.848955761948    27.680586348102
C                    -1.766678237139    -5.023977475942    29.864405164175
N                    -2.738648892175    -4.872234884179    28.765049219410
O                    -1.814823695243    -2.984886758992    27.199215038395
O                    -2.960786774668    -2.430271079037    29.396000484748
O                    -3.427084730826    -3.187243859763    25.091423128054
S                    -2.868328895377    -3.275055446725    28.206326436370
H                    -7.880717485658    -3.452120326917    25.617759143946
H                    -7.729757070730    -3.510845916041    28.112115049015
H                    -5.814562555904    -3.286547588210    24.242054223017
H                    -5.486677566829    -3.422130917745    29.196034317742
H                    -3.342245743927    -5.729064738086    26.932748107967
H                    -2.654079420522    -6.847224852154    28.114092319663
H                    -1.575405647355    -5.758207855312    27.194684551207
H                    -1.960841531522    -4.270197417123    30.626766217765
H                    -0.726976471084    -4.940717278668    29.520075067219
H                    -1.920614712950    -6.014838773130    30.299357091297
H                    -2.609021028804    -3.055191676837    25.626087207885
