
  -OEChem-12122420523D

 19 19  0     0  0  0  0  0  0999 V2000
   -0.8598   -3.6824    0.6904 C   0  0  0  0  0  0  0  0  0  0  0  0
   -1.1641   -4.2010   -0.6057 C   0  0  0  0  0  0  0  0  0  0  0  0
   -0.4087   -4.4956    1.6922 C   0  0  0  0  0  0  0  0  0  0  0  0
   -0.9906   -5.5437   -0.8244 C   0  0  0  0  0  0  0  0  0  0  0  0
   -0.2267   -5.9280    1.4896 C   0  0  0  0  0  0  0  0  0  0  0  0
   -1.2548   -6.2970   -2.1023 C   0  0  0  0  0  0  0  0  0  0  0  0
   -1.7052   -6.2023   -4.5103 C   0  0  0  0  0  0  0  0  0  0  0  0
   -0.5469   -6.3456    0.1861 N   0  0  0  0  0  0  0  0  0  0  0  0
   -1.5042   -5.5580   -3.2165 N   0  0  0  0  0  0  0  0  0  0  0  0
    0.1621   -6.7378    2.3316 O   0  0  0  0  0  0  0  0  0  0  0  0
   -1.2446   -7.5303   -2.1007 O   0  0  0  0  0  0  0  0  0  0  0  0
   -0.9960   -2.6199    0.8779 H   0  0  0  0  0  0  0  0  0  0  0  0
   -1.5554   -3.5485   -1.3771 H   0  0  0  0  0  0  0  0  0  0  0  0
   -0.1758   -4.1168    2.6817 H   0  0  0  0  0  0  0  0  0  0  0  0
   -0.7620   -6.5712   -4.9293 H   0  0  0  0  0  0  0  0  0  0  0  0
   -2.1507   -5.4811   -5.1985 H   0  0  0  0  0  0  0  0  0  0  0  0
   -2.3808   -7.0502   -4.3885 H   0  0  0  0  0  0  0  0  0  0  0  0
   -0.4709   -7.3418   -0.0200 H   0  0  0  0  0  0  0  0  0  0  0  0
   -1.3075   -4.5676   -3.1972 H   0  0  0  0  0  0  0  0  0  0  0  0
  1  2  1  0  0  0  0
  1  3  2  0  0  0  0
  1 12  1  0  0  0  0
  2  4  2  0  0  0  0
  2 13  1  0  0  0  0
  3  5  1  0  0  0  0
  3 14  1  0  0  0  0
  4  6  1  0  0  0  0
  4  8  1  0  0  0  0
  5  8  1  0  0  0  0
  5 10  2  0  0  0  0
  6  9  1  0  0  0  0
  6 11  2  0  0  0  0
  7  9  1  0  0  0  0
  7 15  1  0  0  0  0
  7 16  1  0  0  0  0
  7 17  1  0  0  0  0
  8 18  1  0  0  0  0
  9 19  1  0  0  0  0
M  END
$$$$
