
  -OEChem-12102412483D

 29 29  0     1  0  0  0  0  0999 V2000
    0.8632    3.6943    5.0506 C   0  0  0  0  0  0  0  0  0  0  0  0
    1.9171    2.8803    5.4723 C   0  0  0  0  0  0  0  0  0  0  0  0
   -0.2702    3.1160    4.4634 C   0  0  0  0  0  0  0  0  0  0  0  0
    1.8365    1.4931    5.3016 C   0  0  0  0  0  0  0  0  0  0  0  0
   -0.3507    1.7329    4.3037 C   0  0  0  0  0  0  0  0  0  0  0  0
    0.7058    0.9111    4.7214 C   0  0  0  0  0  0  0  0  0  0  0  0
   -0.4327   -1.2439    5.4342 C   0  0  0  0  0  0  0  0  0  0  0  0
   -1.3155   -3.2821    6.4392 C   0  0  0  0  0  0  0  0  0  0  0  0
    0.5906   -3.4695    4.8825 C   0  0  0  0  0  0  0  0  0  0  0  0
    1.2729   -0.5697    2.2265 C   0  0  0  0  0  0  0  0  0  0  0  0
    0.6357   -0.5858    4.5250 C   0  0  1  0  0  0  0  0  0  0  0  0
   -0.3793   -2.6078    5.5467 N   0  0  0  0  0  0  0  0  0  0  0  0
   -1.2682   -0.5607    6.0247 O   0  0  0  0  0  0  0  0  0  0  0  0
    0.2909   -0.9553    3.1843 O   0  0  0  0  0  0  0  0  0  0  0  0
    0.9222    4.7725    5.1769 H   0  0  0  0  0  0  0  0  0  0  0  0
    2.8008    3.3212    5.9265 H   0  0  0  0  0  0  0  0  0  0  0  0
   -1.0937    3.7467    4.1380 H   0  0  0  0  0  0  0  0  0  0  0  0
    2.6627    0.8615    5.6234 H   0  0  0  0  0  0  0  0  0  0  0  0
   -1.2310    1.2797    3.8591 H   0  0  0  0  0  0  0  0  0  0  0  0
   -1.9510   -3.9746    5.8736 H   0  0  0  0  0  0  0  0  0  0  0  0
   -1.9402   -2.5355    6.9262 H   0  0  0  0  0  0  0  0  0  0  0  0
   -0.7688   -3.8535    7.1998 H   0  0  0  0  0  0  0  0  0  0  0  0
    1.4060   -3.7550    5.5617 H   0  0  0  0  0  0  0  0  0  0  0  0
    0.9976   -2.9898    3.9957 H   0  0  0  0  0  0  0  0  0  0  0  0
    0.0867   -4.3853    4.5557 H   0  0  0  0  0  0  0  0  0  0  0  0
    0.9298   -0.9464    1.2606 H   0  0  0  0  0  0  0  0  0  0  0  0
    2.2518   -1.0142    2.4631 H   0  0  0  0  0  0  0  0  0  0  0  0
    1.3833    0.5198    2.1765 H   0  0  0  0  0  0  0  0  0  0  0  0
    1.6218   -1.0087    4.7750 H   0  0  0  0  0  0  0  0  0  0  0  0
  1  2  1  0  0  0  0
  1  3  2  0  0  0  0
  1 15  1  0  0  0  0
  2  4  2  0  0  0  0
  2 16  1  0  0  0  0
  3  5  1  0  0  0  0
  3 17  1  0  0  0  0
  4  6  1  0  0  0  0
  4 18  1  0  0  0  0
  5  6  2  0  0  0  0
  5 19  1  0  0  0  0
  6 11  1  0  0  0  0
  7 11  1  0  0  0  0
  7 12  1  0  0  0  0
  7 13  2  0  0  0  0
  8 12  1  0  0  0  0
  8 20  1  0  0  0  0
  8 21  1  0  0  0  0
  8 22  1  0  0  0  0
  9 12  1  0  0  0  0
  9 23  1  0  0  0  0
  9 24  1  0  0  0  0
  9 25  1  0  0  0  0
 10 14  1  0  0  0  0
 10 26  1  0  0  0  0
 10 27  1  0  0  0  0
 10 28  1  0  0  0  0
 11 14  1  0  0  0  0
 11 29  1  0  0  0  0
M  END
$$$$
