29
0 1 C11H15NO2
C                     0.863152463220     3.694342135588     5.050595528856
C                     1.917059398818     2.880254358912     5.472334117990
C                    -0.270216621933     3.115978469406     4.463420929822
C                     1.836507371754     1.493109034155     5.301574405430
C                    -0.350727547802     1.732851594676     4.303674051196
C                     0.705823469354     0.911076555913     4.721383442714
C                    -0.432652160006    -1.243941303627     5.434158766002
C                    -1.315514082443    -3.282064573509     6.439182427587
C                     0.590637656412    -3.469478461283     4.882495958384
C                     1.272851397669    -0.569721683738     2.226459989794
C                     0.635675219714    -0.585828721467     4.525015961204
N                    -0.379260624249    -2.607826268373     5.546738074260
O                    -1.268161665183    -0.560718871230     6.024677796758
O                     0.290945922054    -0.955256989720     3.184277429906
H                     0.922158452764     4.772535913274     5.176901535205
H                     2.800795638425     3.321240091592     5.926451848829
H                    -1.093711835888     3.746711946571     4.137975484731
H                     2.662716428700     0.861497800167     5.623387683983
H                    -1.230989828982     1.279713709527     3.859068577058
H                    -1.950991411047    -3.974627094802     5.873571593509
H                    -1.940192306497    -2.535450288512     6.926213044141
H                    -0.768787873771    -3.853521185900     7.199828486630
H                     1.406003618305    -3.755021605727     5.561728553366
H                     0.997616905753    -2.989847393167     3.995663111326
H                     0.086728684010    -4.385319760551     4.555653527791
H                     0.929780726598    -0.946389191485     1.260575851658
H                     2.251827903882    -1.014247506122     2.463060782881
H                     1.383339323505     0.519832549683     2.176548445084
H                     1.621786034872    -1.008718736710     4.775034143010
