31
0 1 C13H13N3O2
C                    12.185765201516     6.709987706249   -26.201969366330
C                    12.380571657881     7.960821363125   -26.794394720945
C                    20.445141668685     5.423950995818   -22.844520297639
C                    20.558737314693     6.632337512381   -23.549989287055
C                    13.218989716802     6.068980422876   -25.511967247804
C                    13.628488966231     8.584101728535   -26.686898572555
C                    19.223953143580     4.767345960155   -22.805523842540
C                    19.420628749104     7.118639287871   -24.184250248923
C                    14.473180759658     6.689960650746   -25.402611565403
C                    14.660225900877     7.957956477083   -25.993841408156
C                    18.126477905205     5.345080228254   -23.482518441263
C                    15.638398576323     5.000238416935   -24.013401020746
C                    16.029663045835     9.454559149766   -24.784802812975
N                    18.230026068806     6.499592562401   -24.154585024294
N                    15.592343675125     6.144326171702   -24.752956716766
N                    16.898415532178     4.693321990165   -23.451770266055
O                    14.705292135001     4.229569487517   -23.793739227216
O                    15.910558755024     8.555575277387   -25.896857629644
H                    11.220019718393     6.217508368920   -26.279361797979
H                    11.574463799457     8.446106319313   -27.337597085654
H                    21.304585859100     4.999811767809   -22.331990335253
H                    21.497457442495     7.173624726554   -23.606107339598
H                    13.068487775718     5.099562778001   -25.056445281735
H                    13.818635509245     9.552566711553   -27.141898944522
H                    19.106723648250     3.829096413771   -22.269827126301
H                    19.450325099937     8.047746906349   -24.750313042674
H                    17.053238951328     9.834841990925   -24.801015712605
H                    15.847590011354     8.935228746922   -23.836131629438
H                    15.324445733100    10.288773737141   -24.882278482872
H                    16.473804526811     6.660640084526   -24.844096828383
H                    16.850324510535     3.827745382018   -22.928739422228
