
  -OEChem-12102412483D

 24 24  0     0  0  0  0  0  0999 V2000
   -6.9100   -3.4148   26.1052 C   0  0  0  0  0  0  0  0  0  0  0  0
   -6.8300   -3.4501   27.5079 C   0  0  0  0  0  0  0  0  0  0  0  0
   -5.7637   -3.3247   25.3260 C   0  0  0  0  0  0  0  0  0  0  0  0
   -5.5824   -3.4011   28.1148 C   0  0  0  0  0  0  0  0  0  0  0  0
   -4.4897   -3.2691   25.9227 C   0  0  0  0  0  0  0  0  0  0  0  0
   -4.4189   -3.3222   27.3330 C   0  0  0  0  0  0  0  0  0  0  0  0
   -2.5556   -5.8490   27.6806 C   0  0  0  0  0  0  0  0  0  0  0  0
   -1.7667   -5.0240   29.8644 C   0  0  0  0  0  0  0  0  0  0  0  0
   -2.7386   -4.8722   28.7650 N   0  0  0  0  0  0  0  0  0  0  0  0
   -1.8148   -2.9849   27.1992 O   0  0  0  0  0  0  0  0  0  0  0  0
   -2.9608   -2.4303   29.3960 O   0  0  0  0  0  0  0  0  0  0  0  0
   -3.4271   -3.1872   25.0914 O   0  0  0  0  0  0  0  0  0  0  0  0
   -2.8683   -3.2751   28.2063 S   0  0  0  0  0  0  0  0  0  0  0  0
   -7.8807   -3.4521   25.6178 H   0  0  0  0  0  0  0  0  0  0  0  0
   -7.7298   -3.5108   28.1121 H   0  0  0  0  0  0  0  0  0  0  0  0
   -5.8146   -3.2865   24.2421 H   0  0  0  0  0  0  0  0  0  0  0  0
   -5.4867   -3.4221   29.1960 H   0  0  0  0  0  0  0  0  0  0  0  0
   -3.3422   -5.7291   26.9327 H   0  0  0  0  0  0  0  0  0  0  0  0
   -2.6541   -6.8472   28.1141 H   0  0  0  0  0  0  0  0  0  0  0  0
   -1.5754   -5.7582   27.1947 H   0  0  0  0  0  0  0  0  0  0  0  0
   -1.9608   -4.2702   30.6268 H   0  0  0  0  0  0  0  0  0  0  0  0
   -0.7270   -4.9407   29.5201 H   0  0  0  0  0  0  0  0  0  0  0  0
   -1.9206   -6.0148   30.2994 H   0  0  0  0  0  0  0  0  0  0  0  0
   -2.6090   -3.0552   25.6261 H   0  0  0  0  0  0  0  0  0  0  0  0
  1  2  1  0  0  0  0
  1  3  2  0  0  0  0
  1 14  1  0  0  0  0
  2  4  2  0  0  0  0
  2 15  1  0  0  0  0
  3  5  1  0  0  0  0
  3 16  1  0  0  0  0
  4  6  1  0  0  0  0
  4 17  1  0  0  0  0
  5  6  2  0  0  0  0
  5 12  1  0  0  0  0
  6 13  1  0  0  0  0
  7  9  1  0  0  0  0
  7 18  1  0  0  0  0
  7 19  1  0  0  0  0
  7 20  1  0  0  0  0
  8  9  1  0  0  0  0
  8 21  1  0  0  0  0
  8 22  1  0  0  0  0
  8 23  1  0  0  0  0
  9 13  1  0  0  0  0
 10 13  2  0  0  0  0
 11 13  2  0  0  0  0
 12 24  1  0  0  0  0
M  END
$$$$
