
  -OEChem-12102412483D

 22 22  0     0  0  0  0  0  0999 V2000
   -0.5302    2.6230    5.7817 C   0  0  0  0  0  0  0  0  0  0  0  0
   -1.4931    2.1873    4.8684 C   0  0  0  0  0  0  0  0  0  0  0  0
    0.2370    1.6713    6.4595 C   0  0  0  0  0  0  0  0  0  0  0  0
   -1.6504    0.8122    4.6615 C   0  0  0  0  0  0  0  0  0  0  0  0
   -0.0243    0.3299    6.1814 C   0  0  0  0  0  0  0  0  0  0  0  0
    0.6654   -2.9266    5.2123 C   0  0  0  0  0  0  0  0  0  0  0  0
    2.5052   -1.2900    4.9275 C   0  0  0  0  0  0  0  0  0  0  0  0
   -0.9278   -0.1111    5.3086 N   0  0  0  0  0  0  0  0  0  0  0  0
    1.5602   -1.9427    5.8387 N   0  0  0  0  0  0  0  0  0  0  0  0
    2.0474   -0.2738    7.6807 O   0  0  0  0  0  0  0  0  0  0  0  0
   -0.0081   -1.7844    7.8171 O   0  0  0  0  0  0  0  0  0  0  0  0
    0.9248   -0.9682    7.0435 S   0  0  0  0  0  0  0  0  0  0  0  0
   -0.3765    3.6833    5.9635 H   0  0  0  0  0  0  0  0  0  0  0  0
   -2.1105    2.8932    4.3208 H   0  0  0  0  0  0  0  0  0  0  0  0
    1.0071    1.9399    7.1743 H   0  0  0  0  0  0  0  0  0  0  0  0
   -2.3839    0.4374    3.9502 H   0  0  0  0  0  0  0  0  0  0  0  0
   -0.0312   -3.3070    5.9578 H   0  0  0  0  0  0  0  0  0  0  0  0
    1.2834   -3.7547    4.8514 H   0  0  0  0  0  0  0  0  0  0  0  0
    0.1027   -2.4932    4.3772 H   0  0  0  0  0  0  0  0  0  0  0  0
    3.1745   -0.6424    5.4939 H   0  0  0  0  0  0  0  0  0  0  0  0
    1.9935   -0.7069    4.1475 H   0  0  0  0  0  0  0  0  0  0  0  0
    3.1033   -2.0690    4.4464 H   0  0  0  0  0  0  0  0  0  0  0  0
  1  2  1  0  0  0  0
  1  3  2  0  0  0  0
  1 13  1  0  0  0  0
  2  4  2  0  0  0  0
  2 14  1  0  0  0  0
  3  5  1  0  0  0  0
  3 15  1  0  0  0  0
  4  8  1  0  0  0  0
  4 16  1  0  0  0  0
  5  8  2  0  0  0  0
  5 12  1  0  0  0  0
  6  9  1  0  0  0  0
  6 17  1  0  0  0  0
  6 18  1  0  0  0  0
  6 19  1  0  0  0  0
  7  9  1  0  0  0  0
  7 20  1  0  0  0  0
  7 21  1  0  0  0  0
  7 22  1  0  0  0  0
  9 12  1  0  0  0  0
 10 12  2  0  0  0  0
 11 12  2  0  0  0  0
M  END
$$$$
