20
0 1 C6H9NO2S2
C                     0.192179800611    -1.533074121679    -4.938286069226
C                    -0.627913327765    -0.722310588615    -5.777856480317
C                    -0.523695654448    -2.510559353594    -4.288756593253
C                    -1.946206564250    -1.112436416939    -5.742636964058
C                    -4.603403589974     0.291606954350    -4.338975632256
C                    -2.977507340455     1.939696880209    -5.194628283832
N                    -3.895532935079     0.837258012516    -5.503737594505
O                    -2.701867403544     0.439082509800    -7.694243321358
O                    -4.343922068607    -1.303516338593    -6.771146155848
S                    -2.204757082982    -2.473510281215    -4.692110735280
S                    -3.289286085567    -0.308981355623    -6.584868559715
H                     1.264167467347    -1.406483936584    -4.830114426125
H                    -0.276110666499     0.092892910584    -6.400280494122
H                    -0.152499669723    -3.267060674469    -3.608227535272
H                    -5.277113458747    -0.501763116478    -4.660861095872
H                    -5.198011673581     1.098336098569    -3.902043058337
H                    -3.914733479280    -0.094462868241    -3.572917127536
H                    -2.543368695205     2.321707040451    -6.118112516013
H                    -2.175722970970     1.633863721523    -4.505468837680
H                    -3.558771315801     2.738538722772    -4.726645713191
