29
0 1 C11H15NO2
C                    -3.963786079417     5.180747044828    -5.564622247815
C                    -4.192899512399     4.984488891330    -4.197908132364
C                    -2.665785534811     5.060370183369    -6.069111949871
C                    -3.132572133206     4.667703754089    -3.345689994347
C                    -1.602167033208     4.743857450681    -5.216911105365
C                    -1.829932202034     4.542421822062    -3.850997359862
C                    -1.095065545278     3.098558807606    -1.902151974075
C                    -1.670085562920     0.792463436805    -1.414108914514
C                    -1.195813456541     1.416597804273    -3.753942840940
C                     1.648605418547     3.814196593305    -2.827729144458
C                    -0.689436999599     4.210996118854    -2.901684675959
N                    -1.195629207620     1.810330022913    -2.346909343239
O                    -1.317254832044     3.421732579600    -0.730728744974
O                     0.486756391632     3.922838410356    -3.645155621866
H                    -4.789042278710     5.426283884135    -6.228127733138
H                    -5.197978536504     5.078908663378    -3.794573146552
H                    -2.477988305774     5.213960058690    -7.128977616657
H                    -3.315699442152     4.518587331236    -2.284388024193
H                    -0.594423559513     4.648663629959    -5.606593985905
H                    -2.728228704967     0.560243352588    -1.595708298349
H                    -1.560568052837     1.160611101500    -0.395500178535
H                    -1.085009278529    -0.124174999138    -1.543767983465
H                    -0.722802823964     0.433141828847    -3.845072961692
H                    -0.631894872973     2.122756496806    -4.355599067566
H                    -2.220522028812     1.347236732192    -4.141852295186
H                     2.489598898285     3.640747305821    -3.502017769055
H                     1.569754796760     2.976102771843    -2.123079601827
H                     1.819235546192     4.739597002624    -2.260897985397
H                    -0.504764180984     5.077427348196    -2.252300125749
