20
0 1 C7ClH9N2O
C                     1.567278316207     0.492658585526     1.570692451151
C                     1.445111232369     0.373578462238     2.944538991676
C                     0.342101953977     0.039669584386     1.022042434605
C                    -0.507991013654    -0.326573989578     2.062698831057
C                    -1.899438824306    -0.834932151672     1.973855041612
C                    -0.224986528086    -0.467308277164     4.596559360101
C                    -4.188012878365    -0.692886150200     2.851032251403
N                     0.195376322011    -0.107695944538     3.246281218933
N                    -2.770472180847    -0.352215223695     2.931802013722
O                    -2.252818576538    -1.639372641498     1.114813936062
Cl                   -0.037624764267     0.014709829972    -0.668319934294
H                     2.427685254597     0.851646510211     1.023092644989
H                     2.164401430926     0.570970483746     3.728104763484
H                    -0.838577907482     0.316603624165     5.052762811165
H                    -0.798095612736    -1.394755072967     4.580698193979
H                     0.666155652420    -0.612444705298     5.209922404822
H                    -4.678671142284    -0.217390411481     1.993227653075
H                    -4.680866825534    -0.377591541117     3.773932885789
H                    -4.289397014097    -1.773528346171     2.740937054434
H                    -2.537135516840     0.543533925982     3.341399425523
