
  -OEChem-12122420523D

 20 20  0     0  0  0  0  0  0999 V2000
    0.1922   -1.5331   -4.9383 C   0  0  0  0  0  0  0  0  0  0  0  0
   -0.6279   -0.7223   -5.7779 C   0  0  0  0  0  0  0  0  0  0  0  0
   -0.5237   -2.5106   -4.2888 C   0  0  0  0  0  0  0  0  0  0  0  0
   -1.9462   -1.1124   -5.7426 C   0  0  0  0  0  0  0  0  0  0  0  0
   -4.6034    0.2916   -4.3390 C   0  0  0  0  0  0  0  0  0  0  0  0
   -2.9775    1.9397   -5.1946 C   0  0  0  0  0  0  0  0  0  0  0  0
   -3.8955    0.8373   -5.5037 N   0  0  0  0  0  0  0  0  0  0  0  0
   -2.7019    0.4391   -7.6942 O   0  0  0  0  0  0  0  0  0  0  0  0
   -4.3439   -1.3035   -6.7711 O   0  0  0  0  0  0  0  0  0  0  0  0
   -2.2048   -2.4735   -4.6921 S   0  0  0  0  0  0  0  0  0  0  0  0
   -3.2893   -0.3090   -6.5849 S   0  0  0  0  0  0  0  0  0  0  0  0
    1.2642   -1.4065   -4.8301 H   0  0  0  0  0  0  0  0  0  0  0  0
   -0.2761    0.0929   -6.4003 H   0  0  0  0  0  0  0  0  0  0  0  0
   -0.1525   -3.2671   -3.6082 H   0  0  0  0  0  0  0  0  0  0  0  0
   -5.2771   -0.5018   -4.6609 H   0  0  0  0  0  0  0  0  0  0  0  0
   -5.1980    1.0983   -3.9020 H   0  0  0  0  0  0  0  0  0  0  0  0
   -3.9147   -0.0945   -3.5729 H   0  0  0  0  0  0  0  0  0  0  0  0
   -2.5434    2.3217   -6.1181 H   0  0  0  0  0  0  0  0  0  0  0  0
   -2.1757    1.6339   -4.5055 H   0  0  0  0  0  0  0  0  0  0  0  0
   -3.5588    2.7385   -4.7266 H   0  0  0  0  0  0  0  0  0  0  0  0
  1  2  1  0  0  0  0
  1  3  2  0  0  0  0
  1 12  1  0  0  0  0
  2  4  2  0  0  0  0
  2 13  1  0  0  0  0
  3 10  1  0  0  0  0
  3 14  1  0  0  0  0
  4 10  1  0  0  0  0
  4 11  1  0  0  0  0
  5  7  1  0  0  0  0
  5 15  1  0  0  0  0
  5 16  1  0  0  0  0
  5 17  1  0  0  0  0
  6  7  1  0  0  0  0
  6 18  1  0  0  0  0
  6 19  1  0  0  0  0
  6 20  1  0  0  0  0
  7 11  1  0  0  0  0
  8 11  2  0  0  0  0
  9 11  2  0  0  0  0
M  END
$$$$
