
  -OEChem-12102412493D

 15 15  0     0  0  0  0  0  0999 V2000
    1.6049    1.8227    2.0147 C   0  0  0  0  0  0  0  0  0  0  0  0
    1.5203    0.7733    1.1236 C   0  0  0  0  0  0  0  0  0  0  0  0
    1.0482    0.8484   -0.3033 C   0  0  0  0  0  0  0  0  0  0  0  0
    2.0337    1.4608    3.2679 N   0  0  0  0  0  0  0  0  0  0  0  0
    2.2841    0.2259    3.4237 N   0  0  0  0  0  0  0  0  0  0  0  0
   -0.2796    0.2183   -0.5385 N   0  0  0  0  0  0  0  0  0  0  0  0
   -1.2595    0.7396    0.4052 N   0  3  0  0  0  0  0  0  0  0  0  0
    2.0139   -0.6641    1.9265 S   0  0  0  0  0  0  0  0  0  0  0  0
    1.4071    2.8696    1.8066 H   0  0  0  0  0  0  0  0  0  0  0  0
    0.9906    1.8899   -0.6330 H   0  0  0  0  0  0  0  0  0  0  0  0
    1.7216    0.3326   -0.9926 H   0  0  0  0  0  0  0  0  0  0  0  0
   -0.2279   -0.7860   -0.3530 H   0  0  0  0  0  0  0  0  0  0  0  0
   -1.4852    1.7061    0.1328 H   0  0  0  0  0  0  0  0  0  0  0  0
   -0.9383    0.7471    1.3935 H   0  0  0  0  0  0  0  0  0  0  0  0
   -2.1293    0.1948    0.3271 H   0  0  0  0  0  0  0  0  0  0  0  0
  1  2  2  0  0  0  0
  1  4  1  0  0  0  0
  1  9  1  0  0  0  0
  2  3  1  0  0  0  0
  2  8  1  0  0  0  0
  3  6  1  0  0  0  0
  3 10  1  0  0  0  0
  3 11  1  0  0  0  0
  4  5  2  0  0  0  0
  5  8  1  0  0  0  0
  6  7  1  0  0  0  0
  6 12  1  0  0  0  0
  7 13  1  0  0  0  0
  7 14  1  0  0  0  0
  7 15  1  0  0  0  0
M  CHG  1   7   1
M  END
$$$$
