
  -OEChem-12102412493D

 20 21  0     1  0  0  0  0  0999 V2000
   -3.9132   -0.9565   -1.6479 C   0  0  0  0  0  0  0  0  0  0  0  0
   -4.1175   -1.4843   -0.4144 C   0  0  0  0  0  0  0  0  0  0  0  0
   -1.8000   -0.7273   -0.7524 C   0  0  0  0  0  0  0  0  0  0  0  0
    0.5851    0.3471    1.1325 C   0  0  0  0  0  0  0  0  0  0  0  0
   -0.1733    1.1086    0.0231 C   0  0  0  0  0  0  0  0  0  0  0  0
   -0.3604   -0.3118   -0.6449 C   0  0  2  0  0  0  0  0  0  0  0  0
    0.4203   -0.5270   -1.9435 C   0  0  0  0  0  0  0  0  0  0  0  0
   -2.5976   -0.5421   -1.8089 N   0  3  0  0  0  0  0  0  0  0  0  0
    0.2357   -0.8952    0.5708 N   0  0  0  0  0  0  0  0  0  0  0  0
    1.2426    0.6436    2.0901 O   0  0  0  0  0  0  0  0  0  0  0  0
   -2.6575   -1.4596    0.5287 S   0  0  0  0  0  0  0  0  0  0  0  0
   -4.6221   -0.8425   -2.4581 H   0  0  0  0  0  0  0  0  0  0  0  0
   -5.0368   -1.8924   -0.0151 H   0  0  0  0  0  0  0  0  0  0  0  0
   -1.0841    1.6103    0.3557 H   0  0  0  0  0  0  0  0  0  0  0  0
    0.4448    1.7963   -0.5563 H   0  0  0  0  0  0  0  0  0  0  0  0
    1.4606   -0.2327   -1.7865 H   0  0  0  0  0  0  0  0  0  0  0  0
    0.0307    0.0900   -2.7606 H   0  0  0  0  0  0  0  0  0  0  0  0
    0.3995   -1.5759   -2.2536 H   0  0  0  0  0  0  0  0  0  0  0  0
   -2.2586   -0.1242   -2.6736 H   0  0  0  0  0  0  0  0  0  0  0  0
    0.7696   -1.7613    0.6325 H   0  0  0  0  0  0  0  0  0  0  0  0
  1  2  2  0  0  0  0
  1  8  1  0  0  0  0
  1 12  1  0  0  0  0
  2 11  1  0  0  0  0
  2 13  1  0  0  0  0
  3  6  1  0  0  0  0
  3  8  2  0  0  0  0
  3 11  1  0  0  0  0
  4  5  1  0  0  0  0
  4  9  1  0  0  0  0
  4 10  2  0  0  0  0
  5  6  1  0  0  0  0
  5 14  1  0  0  0  0
  5 15  1  0  0  0  0
  6  7  1  0  0  0  0
  6  9  1  0  0  0  0
  7 16  1  0  0  0  0
  7 17  1  0  0  0  0
  7 18  1  0  0  0  0
  8 19  1  0  0  0  0
  9 20  1  0  0  0  0
M  CHG  1   8   1
M  END
$$$$
