
  -OEChem-12122420533D

 15 15  0     0  0  0  0  0  0999 V2000
    2.1127    0.3013    0.8620 C   0  0  0  0  0  0  0  0  0  0  0  0
    1.3689    0.9417   -0.1032 C   0  0  0  0  0  0  0  0  0  0  0  0
    0.9530    0.3833   -1.4291 C   0  0  0  0  0  0  0  0  0  0  0  0
    2.3077    1.0449    1.9955 N   0  0  0  0  0  0  0  0  0  0  0  0
    1.7736    2.2000    1.9927 N   0  0  0  0  0  0  0  0  0  0  0  0
   -0.3741   -0.2778   -1.2559 N   0  0  0  0  0  0  0  0  0  0  0  0
   -0.9513   -0.6226   -2.5523 N   0  3  0  0  0  0  0  0  0  0  0  0
    0.9355    2.4974    0.4793 S   0  0  0  0  0  0  0  0  0  0  0  0
    2.5410   -0.6929    0.7974 H   0  0  0  0  0  0  0  0  0  0  0  0
    0.9169    1.1737   -2.1930 H   0  0  0  0  0  0  0  0  0  0  0  0
    1.6660   -0.3811   -1.7520 H   0  0  0  0  0  0  0  0  0  0  0  0
   -1.0319    0.3679   -0.8116 H   0  0  0  0  0  0  0  0  0  0  0  0
   -0.3596   -1.3458   -2.9843 H   0  0  0  0  0  0  0  0  0  0  0  0
   -1.0476    0.1590   -3.2260 H   0  0  0  0  0  0  0  0  0  0  0  0
   -1.8771   -1.0482   -2.4011 H   0  0  0  0  0  0  0  0  0  0  0  0
  1  2  2  0  0  0  0
  1  4  1  0  0  0  0
  1  9  1  0  0  0  0
  2  3  1  0  0  0  0
  2  8  1  0  0  0  0
  3  6  1  0  0  0  0
  3 10  1  0  0  0  0
  3 11  1  0  0  0  0
  4  5  2  0  0  0  0
  5  8  1  0  0  0  0
  6  7  1  0  0  0  0
  6 12  1  0  0  0  0
  7 13  1  0  0  0  0
  7 14  1  0  0  0  0
  7 15  1  0  0  0  0
M  CHG  1   7   1
M  END
$$$$
