
  -OEChem-12122420533D

 14 14  0     1  0  0  0  0  0999 V2000
    0.6744    0.8007    1.3474 C   0  0  0  0  0  0  0  0  0  0  0  0
    0.9076   -0.0546    3.5943 C   0  0  0  0  0  0  0  0  0  0  0  0
   -0.5095    0.0645    1.2419 C   0  0  0  0  0  0  0  0  0  0  0  0
    1.3854    0.7344    2.5481 C   0  0  0  0  0  0  0  0  0  0  0  0
   -0.2735   -0.7477    3.3454 C   0  0  0  0  0  0  0  0  0  0  0  0
   -0.9910   -0.7042    2.2286 N   0  0  0  0  0  0  0  0  0  0  0  0
   -0.1480   -1.4734    5.8971 O   0  0  0  0  0  0  0  0  0  0  0  0
   -0.3612   -3.2052    3.9652 O   0  0  0  0  0  0  0  0  0  0  0  0
   -0.9668   -1.7869    4.6901 S   0  0  2  0  0  0  0  0  0  0  0  0
    2.8650    1.6402    2.7388 Cl  0  0  0  0  0  0  0  0  0  0  0  0
    1.0238    1.4111    0.5214 H   0  0  0  0  0  0  0  0  0  0  0  0
    1.4056   -0.1394    4.5551 H   0  0  0  0  0  0  0  0  0  0  0  0
   -1.0944    0.1004    0.3253 H   0  0  0  0  0  0  0  0  0  0  0  0
   -0.8808   -3.9544    4.3132 H   0  0  0  0  0  0  0  0  0  0  0  0
  1  3  1  0  0  0  0
  1  4  2  0  0  0  0
  1 11  1  0  0  0  0
  2  4  1  0  0  0  0
  2  5  2  0  0  0  0
  2 12  1  0  0  0  0
  3  6  2  0  0  0  0
  3 13  1  0  0  0  0
  4 10  1  0  0  0  0
  5  6  1  0  0  0  0
  5  9  1  0  0  0  0
  7  9  2  0  0  0  0
  8  9  1  0  0  0  0
  8 14  1  0  0  0  0
M  END
$$$$
