
  -OEChem-12122420533D

 19 20  0     1  0  0  0  0  0999 V2000
   -3.5782   -1.9350   -0.3180 C   0  0  0  0  0  0  0  0  0  0  0  0
   -4.1136   -1.1202   -1.2760 C   0  0  0  0  0  0  0  0  0  0  0  0
   -1.7527   -0.7502   -0.7490 C   0  0  0  0  0  0  0  0  0  0  0  0
    0.4244    0.4772    1.1344 C   0  0  0  0  0  0  0  0  0  0  0  0
   -0.0894    1.1477   -0.1570 C   0  0  0  0  0  0  0  0  0  0  0  0
   -0.3086   -0.3146   -0.6800 C   0  0  2  0  0  0  0  0  0  0  0  0
    0.4551   -0.6936   -1.9505 C   0  0  0  0  0  0  0  0  0  0  0  0
   -2.2457   -1.7200   -0.0286 N   0  0  0  0  0  0  0  0  0  0  0  0
    0.3399   -0.7840    0.5643 N   0  0  0  0  0  0  0  0  0  0  0  0
    0.7556    0.8572    2.2362 O   0  0  0  0  0  0  0  0  0  0  0  0
   -2.9029   -0.0215   -1.8574 S   0  0  0  0  0  0  0  0  0  0  0  0
   -4.1188   -2.7112    0.2123 H   0  0  0  0  0  0  0  0  0  0  0  0
   -5.1251   -1.0993   -1.6598 H   0  0  0  0  0  0  0  0  0  0  0  0
   -0.9954    1.7384   -0.0123 H   0  0  0  0  0  0  0  0  0  0  0  0
    0.6560    1.7274   -0.7058 H   0  0  0  0  0  0  0  0  0  0  0  0
    1.5037   -0.3996   -1.8512 H   0  0  0  0  0  0  0  0  0  0  0  0
    0.0294   -0.1934   -2.8262 H   0  0  0  0  0  0  0  0  0  0  0  0
    0.4084   -1.7740   -2.1178 H   0  0  0  0  0  0  0  0  0  0  0  0
    0.1414   -1.6589    1.0433 H   0  0  0  0  0  0  0  0  0  0  0  0
  1  2  2  0  0  0  0
  1  8  1  0  0  0  0
  1 12  1  0  0  0  0
  2 11  1  0  0  0  0
  2 13  1  0  0  0  0
  3  6  1  0  0  0  0
  3  8  2  0  0  0  0
  3 11  1  0  0  0  0
  4  5  1  0  0  0  0
  4  9  1  0  0  0  0
  4 10  2  0  0  0  0
  5  6  1  0  0  0  0
  5 14  1  0  0  0  0
  5 15  1  0  0  0  0
  6  7  1  0  0  0  0
  6  9  1  0  0  0  0
  7 16  1  0  0  0  0
  7 17  1  0  0  0  0
  7 18  1  0  0  0  0
  9 19  1  0  0  0  0
M  END
$$$$
