
  -OEChem-12122420533D

 18 19  0     0  0  0  0  0  0999 V2000
   -0.6789   -0.5821    2.3971 C   0  0  0  0  0  0  0  0  0  0  0  0
   -0.8530    0.3058    3.4125 C   0  0  0  0  0  0  0  0  0  0  0  0
   -0.2014    0.2284    1.3161 C   0  0  0  0  0  0  0  0  0  0  0  0
    0.7733   -1.4564   -0.3741 C   0  0  0  0  0  0  0  0  0  0  0  0
   -0.9445    0.2531   -1.1590 C   0  0  0  0  0  0  0  0  0  0  0  0
    0.3750    0.9408   -1.1105 C   0  0  0  0  0  0  0  0  0  0  0  0
    0.0853   -0.1646   -0.0893 C   0  0  0  0  0  0  0  0  0  0  0  0
   -0.1077    1.4949    1.6748 N   0  0  0  0  0  0  0  0  0  0  0  0
    1.0010   -1.8835   -1.4921 O   0  0  0  0  0  0  0  0  0  0  0  0
   -0.5248    1.5519    3.0092 O   0  0  0  0  0  0  0  0  0  0  0  0
    1.1458   -2.1365    0.7432 O   0  0  0  0  0  0  0  0  0  0  0  0
   -0.8393   -1.6492    2.4057 H   0  0  0  0  0  0  0  0  0  0  0  0
   -1.1859    0.2128    4.4381 H   0  0  0  0  0  0  0  0  0  0  0  0
   -1.8138    0.7775   -0.7761 H   0  0  0  0  0  0  0  0  0  0  0  0
   -1.1209   -0.4679   -1.9498 H   0  0  0  0  0  0  0  0  0  0  0  0
    1.1037    0.6884   -1.8724 H   0  0  0  0  0  0  0  0  0  0  0  0
    0.4258    1.9432   -0.7024 H   0  0  0  0  0  0  0  0  0  0  0  0
    1.5965   -2.9418    0.4230 H   0  0  0  0  0  0  0  0  0  0  0  0
  1  2  2  0  0  0  0
  1  3  1  0  0  0  0
  1 12  1  0  0  0  0
  2 10  1  0  0  0  0
  2 13  1  0  0  0  0
  3  7  1  0  0  0  0
  3  8  2  0  0  0  0
  4  7  1  0  0  0  0
  4  9  2  0  0  0  0
  4 11  1  0  0  0  0
  5  6  1  0  0  0  0
  5  7  1  0  0  0  0
  5 14  1  0  0  0  0
  5 15  1  0  0  0  0
  6  7  1  0  0  0  0
  6 16  1  0  0  0  0
  6 17  1  0  0  0  0
  8 10  1  0  0  0  0
 11 18  1  0  0  0  0
M  END
$$$$
