
  -OEChem-12122420533D

 21 21  0     1  0  0  0  0  0999 V2000
   -1.5021    1.7464    0.3870 C   0  0  0  0  0  0  0  0  0  0  0  0
   -1.5273   -0.1988    2.0524 C   0  0  0  0  0  0  0  0  0  0  0  0
   -0.6247   -0.5571   -0.3914 C   0  0  0  0  0  0  0  0  0  0  0  0
   -0.8702    0.4207    0.7527 C   0  0  1  0  0  0  0  0  0  0  0  0
    0.5469    0.0992    0.3174 C   0  0  0  0  0  0  0  0  0  0  0  0
    1.4286   -0.7788    1.1933 C   0  0  0  0  0  0  0  0  0  0  0  0
    1.3614    1.1120   -0.4769 C   0  0  0  0  0  0  0  0  0  0  0  0
   -2.8617    1.6497    0.1754 N   0  0  0  0  0  0  0  0  0  0  0  0
   -0.7834   -0.4012    3.0364 O   0  5  0  0  0  0  0  0  0  0  0  0
   -0.8937    2.8193    0.2786 O   0  0  0  0  0  0  0  0  0  0  0  0
   -2.7735   -0.4237    1.9424 O   0  0  0  0  0  0  0  0  0  0  0  0
   -0.8402   -1.6049   -0.1914 H   0  0  0  0  0  0  0  0  0  0  0  0
   -0.8641   -0.2323   -1.4031 H   0  0  0  0  0  0  0  0  0  0  0  0
    1.9336   -0.1778    1.9578 H   0  0  0  0  0  0  0  0  0  0  0  0
    2.1946   -1.2624    0.5685 H   0  0  0  0  0  0  0  0  0  0  0  0
    0.8560   -1.5399    1.7218 H   0  0  0  0  0  0  0  0  0  0  0  0
    1.8464    1.8327    0.1907 H   0  0  0  0  0  0  0  0  0  0  0  0
    0.7508    1.6856   -1.1755 H   0  0  0  0  0  0  0  0  0  0  0  0
    2.1440    0.5855   -1.0430 H   0  0  0  0  0  0  0  0  0  0  0  0
   -3.3434    2.5388    0.2576 H   0  0  0  0  0  0  0  0  0  0  0  0
   -3.2622    0.8466    0.6880 H   0  0  0  0  0  0  0  0  0  0  0  0
  1  4  1  0  0  0  0
  1  8  1  0  0  0  0
  1 10  2  0  0  0  0
  2  4  1  0  0  0  0
  2  9  1  0  0  0  0
  2 11  2  0  0  0  0
  3  4  1  0  0  0  0
  3  5  1  0  0  0  0
  3 12  1  0  0  0  0
  3 13  1  0  0  0  0
  4  5  1  0  0  0  0
  5  6  1  0  0  0  0
  5  7  1  0  0  0  0
  6 14  1  0  0  0  0
  6 15  1  0  0  0  0
  6 16  1  0  0  0  0
  7 17  1  0  0  0  0
  7 18  1  0  0  0  0
  7 19  1  0  0  0  0
  8 20  1  0  0  0  0
  8 21  1  0  0  0  0
M  CHG  1   9  -1
M  END
$$$$
