
  -OEChem-12102412493D

 13 13  0     1  0  0  0  0  0999 V2000
    0.4017   -0.2137    0.6519 C   0  0  0  0  0  0  0  0  0  0  0  0
    2.2996   -0.1917    2.1416 C   0  0  0  0  0  0  0  0  0  0  0  0
   -0.1391   -1.2052    1.4822 C   0  0  0  0  0  0  0  0  0  0  0  0
    1.6516    0.2882    1.0124 C   0  0  0  0  0  0  0  0  0  0  0  0
    1.6604   -1.1878    2.8985 C   0  0  0  0  0  0  0  0  0  0  0  0
    0.4603   -1.6870    2.5751 N   0  0  0  0  0  0  0  0  0  0  0  0
    2.7394   -3.3002    4.1042 O   0  5  0  0  0  0  0  0  0  0  0  0
    1.5782   -1.5415    5.5393 O   0  0  0  0  0  0  0  0  0  0  0  0
    2.5989   -1.8244    4.4478 S   0  0  2  0  0  0  0  0  0  0  0  0
    2.4032    1.5487    0.0086 Cl  0  0  0  0  0  0  0  0  0  0  0  0
   -0.1290    0.1423   -0.2253 H   0  0  0  0  0  0  0  0  0  0  0  0
    3.2746    0.1796    2.4480 H   0  0  0  0  0  0  0  0  0  0  0  0
   -1.1161   -1.6271    1.2384 H   0  0  0  0  0  0  0  0  0  0  0  0
  1  3  1  0  0  0  0
  1  4  2  0  0  0  0
  1 11  1  0  0  0  0
  2  4  1  0  0  0  0
  2  5  2  0  0  0  0
  2 12  1  0  0  0  0
  3  6  2  0  0  0  0
  3 13  1  0  0  0  0
  4 10  1  0  0  0  0
  5  6  1  0  0  0  0
  5  9  1  0  0  0  0
  7  9  1  0  0  0  0
  8  9  2  0  0  0  0
M  CHG  1   7  -1
M  END
$$$$
