
  -OEChem-12102412493D

 22 22  0     1  0  0  0  0  0999 V2000
   -1.7382    0.2909    0.1650 C   0  0  0  0  0  0  0  0  0  0  0  0
   -0.2197   -1.6894    0.6790 C   0  0  0  0  0  0  0  0  0  0  0  0
   -0.1203   -0.6758   -1.6961 C   0  0  0  0  0  0  0  0  0  0  0  0
   -0.5495   -0.5296   -0.2498 C   0  0  1  0  0  0  0  0  0  0  0  0
    0.6856    0.2383   -0.8188 C   0  0  0  0  0  0  0  0  0  0  0  0
    2.0735   -0.1848   -0.3695 C   0  0  0  0  0  0  0  0  0  0  0  0
    0.5482    1.7403   -1.0038 C   0  0  0  0  0  0  0  0  0  0  0  0
   -2.6402    0.6360   -0.7950 N   0  0  0  0  0  0  0  0  0  0  0  0
   -1.8824    0.6590    1.3416 O   0  0  0  0  0  0  0  0  0  0  0  0
    0.2854   -2.7187    0.2764 O   0  0  0  0  0  0  0  0  0  0  0  0
   -0.4712   -1.4904    1.9824 O   0  0  0  0  0  0  0  0  0  0  0  0
    0.2962   -1.6449   -1.9507 H   0  0  0  0  0  0  0  0  0  0  0  0
   -0.7282   -0.2181   -2.4720 H   0  0  0  0  0  0  0  0  0  0  0  0
    2.3240    0.2720    0.5943 H   0  0  0  0  0  0  0  0  0  0  0  0
    2.8082    0.1620   -1.1048 H   0  0  0  0  0  0  0  0  0  0  0  0
    2.1719   -1.2665   -0.2758 H   0  0  0  0  0  0  0  0  0  0  0  0
    0.7387    2.2655   -0.0619 H   0  0  0  0  0  0  0  0  0  0  0  0
   -0.4408    2.0345   -1.3618 H   0  0  0  0  0  0  0  0  0  0  0  0
    1.2868    2.0846   -1.7362 H   0  0  0  0  0  0  0  0  0  0  0  0
   -3.4879    1.0916   -0.4770 H   0  0  0  0  0  0  0  0  0  0  0  0
   -2.6731    0.1342   -1.6714 H   0  0  0  0  0  0  0  0  0  0  0  0
   -0.9157   -0.6105    2.0908 H   0  0  0  0  0  0  0  0  0  0  0  0
  1  4  1  0  0  0  0
  1  8  1  0  0  0  0
  1  9  2  0  0  0  0
  2  4  1  0  0  0  0
  2 10  2  0  0  0  0
  2 11  1  0  0  0  0
  3  4  1  0  0  0  0
  3  5  1  0  0  0  0
  3 12  1  0  0  0  0
  3 13  1  0  0  0  0
  4  5  1  0  0  0  0
  5  6  1  0  0  0  0
  5  7  1  0  0  0  0
  6 14  1  0  0  0  0
  6 15  1  0  0  0  0
  6 16  1  0  0  0  0
  7 17  1  0  0  0  0
  7 18  1  0  0  0  0
  7 19  1  0  0  0  0
  8 20  1  0  0  0  0
  8 21  1  0  0  0  0
 11 22  1  0  0  0  0
M  END
$$$$
