
  -OEChem-12102412493D

 26 27  0     0  0  0  0  0  0999 V2000
    2.1116   -1.0565    0.3191 C   0  0  0  0  0  0  0  0  0  0  0  0
   -1.2942   -1.0231    0.1521 C   0  0  0  0  0  0  0  0  0  0  0  0
   -0.0722    0.8866   -1.0746 C   0  0  0  0  0  0  0  0  0  0  0  0
    0.6648   -1.5351   -1.4182 C   0  0  0  0  0  0  0  0  0  0  0  0
   -1.9180   -0.0858    1.1892 C   0  0  0  0  0  0  0  0  0  0  0  0
   -0.5922    1.9660   -0.1234 C   0  0  0  0  0  0  0  0  0  0  0  0
    0.0103   -0.5102   -0.4540 C   0  0  0  0  0  0  0  0  0  0  0  0
    2.0216   -1.6561   -0.8633 N   0  3  0  0  0  0  0  0  0  0  0  0
    3.1641   -1.0388    1.1274 N   0  0  0  0  0  0  0  0  0  0  0  0
   -2.6855    2.4721    1.4833 O   0  0  0  0  0  0  0  0  0  0  0  0
   -3.0715    1.2843   -0.7647 O   0  0  0  0  0  0  0  0  0  0  0  0
    1.0192   -0.4265    0.6743 O   0  0  0  0  0  0  0  0  0  0  0  0
   -2.2657    1.5344    0.4420 S   0  0  0  0  0  0  0  0  0  0  0  0
   -1.1161   -2.0018    0.6102 H   0  0  0  0  0  0  0  0  0  0  0  0
   -2.0017   -1.1695   -0.6709 H   0  0  0  0  0  0  0  0  0  0  0  0
   -0.7419    0.8213   -1.9384 H   0  0  0  0  0  0  0  0  0  0  0  0
    0.9167    1.1747   -1.4495 H   0  0  0  0  0  0  0  0  0  0  0  0
    0.1586   -2.5038   -1.4019 H   0  0  0  0  0  0  0  0  0  0  0  0
    0.7018   -1.1619   -2.4432 H   0  0  0  0  0  0  0  0  0  0  0  0
   -2.8845   -0.4660    1.5292 H   0  0  0  0  0  0  0  0  0  0  0  0
   -1.2792    0.0829    2.0592 H   0  0  0  0  0  0  0  0  0  0  0  0
    0.0305    2.1030    0.7636 H   0  0  0  0  0  0  0  0  0  0  0  0
   -0.6939    2.9257   -0.6362 H   0  0  0  0  0  0  0  0  0  0  0  0
    2.7539   -2.2255   -1.2725 H   0  0  0  0  0  0  0  0  0  0  0  0
    3.1108   -0.5225    1.9992 H   0  0  0  0  0  0  0  0  0  0  0  0
    4.0199   -1.5373    0.9134 H   0  0  0  0  0  0  0  0  0  0  0  0
  1  8  2  0  0  0  0
  1  9  1  0  0  0  0
  1 12  1  0  0  0  0
  2  5  1  0  0  0  0
  2  7  1  0  0  0  0
  2 14  1  0  0  0  0
  2 15  1  0  0  0  0
  3  6  1  0  0  0  0
  3  7  1  0  0  0  0
  3 16  1  0  0  0  0
  3 17  1  0  0  0  0
  4  7  1  0  0  0  0
  4  8  1  0  0  0  0
  4 18  1  0  0  0  0
  4 19  1  0  0  0  0
  5 13  1  0  0  0  0
  5 20  1  0  0  0  0
  5 21  1  0  0  0  0
  6 13  1  0  0  0  0
  6 22  1  0  0  0  0
  6 23  1  0  0  0  0
  7 12  1  0  0  0  0
  8 24  1  0  0  0  0
  9 25  1  0  0  0  0
  9 26  1  0  0  0  0
 10 13  2  0  0  0  0
 11 13  2  0  0  0  0
M  CHG  1   8   1
M  END
$$$$
