
  -OEChem-12122420533D

 17 18  0     1  0  0  0  0  0999 V2000
    0.7124    1.4554    0.7974 C   0  0  0  0  0  0  0  0  0  0  0  0
    0.3763   -1.0879    1.0937 C   0  0  0  0  0  0  0  0  0  0  0  0
    0.2739    0.7064   -0.4181 C   0  0  1  0  0  0  0  0  0  0  0  0
   -0.6237   -0.3822    0.2364 C   0  0  1  0  0  0  0  0  0  0  0  0
   -0.9140    0.0449   -1.1704 C   0  0  0  0  0  0  0  0  0  0  0  0
    1.0918    0.1943    1.7267 N   0  3  0  0  0  0  0  0  0  0  0  0
   -0.5250   -0.7450   -2.2235 O   0  0  0  0  0  0  0  0  0  0  0  0
    1.6235    2.0470    0.6972 H   0  0  0  0  0  0  0  0  0  0  0  0
   -0.0570    2.0168    1.3252 H   0  0  0  0  0  0  0  0  0  0  0  0
   -0.0241   -1.6643    1.9293 H   0  0  0  0  0  0  0  0  0  0  0  0
    1.1325   -1.6585    0.5580 H   0  0  0  0  0  0  0  0  0  0  0  0
    1.1420    0.2278   -0.8756 H   0  0  0  0  0  0  0  0  0  0  0  0
   -1.3799    0.0909    0.8652 H   0  0  0  0  0  0  0  0  0  0  0  0
   -1.8677    0.5603   -1.2730 H   0  0  0  0  0  0  0  0  0  0  0  0
    2.1088    0.0647    1.7586 H   0  0  0  0  0  0  0  0  0  0  0  0
    0.7902    0.3412    2.6964 H   0  0  0  0  0  0  0  0  0  0  0  0
   -0.7293   -0.3033   -3.0656 H   0  0  0  0  0  0  0  0  0  0  0  0
  1  3  1  0  0  0  0
  1  6  1  0  0  0  0
  1  8  1  0  0  0  0
  1  9  1  0  0  0  0
  2  4  1  0  0  0  0
  2  6  1  0  0  0  0
  2 10  1  0  0  0  0
  2 11  1  0  0  0  0
  3  4  1  0  0  0  0
  3  5  1  0  0  0  0
  3 12  1  0  0  0  0
  4  5  1  0  0  0  0
  4 13  1  0  0  0  0
  5  7  1  0  0  0  0
  5 14  1  0  0  0  0
  6 15  1  0  0  0  0
  6 16  1  0  0  0  0
  7 17  1  0  0  0  0
M  CHG  1   6   1
M  END
$$$$
