
  -OEChem-12102412493D

 14 14  0     0  0  0  0  0  0999 V2000
    1.3045   -2.7674   -0.9285 C   0  0  0  0  0  0  0  0  0  0  0  0
    0.7394   -0.6773   -0.3753 C   0  0  0  0  0  0  0  0  0  0  0  0
    2.0560   -0.7942   -0.8675 C   0  0  0  0  0  0  0  0  0  0  0  0
   -0.2327    0.3573    0.1480 C   0  0  0  0  0  0  0  0  0  0  0  0
    3.7538    0.9856   -1.1763 N   0  0  0  0  0  0  0  0  0  0  0  0
    2.3904   -2.0844   -1.2038 N   0  0  0  0  0  0  0  0  0  0  0  0
    2.9685    0.1985   -1.0275 N   0  3  0  0  0  0  0  0  0  0  0  0
    0.3036   -1.9542   -0.4329 N   0  0  0  0  0  0  0  0  0  0  0  0
    0.1759    1.6446    0.2131 N   0  0  0  0  0  0  0  0  0  0  0  0
   -1.3347   -0.0550    0.4795 O   0  0  0  0  0  0  0  0  0  0  0  0
    1.1831   -3.8351   -1.0639 H   0  0  0  0  0  0  0  0  0  0  0  0
   -0.6429   -2.2059   -0.1346 H   0  0  0  0  0  0  0  0  0  0  0  0
   -0.4880    2.3280    0.5662 H   0  0  0  0  0  0  0  0  0  0  0  0
    1.0868    1.9815   -0.0662 H   0  0  0  0  0  0  0  0  0  0  0  0
  1  6  2  0  0  0  0
  1  8  1  0  0  0  0
  1 11  1  0  0  0  0
  2  3  2  0  0  0  0
  2  4  1  0  0  0  0
  2  8  1  0  0  0  0
  3  6  1  0  0  0  0
  3  7  1  0  0  0  0
  4  9  1  0  0  0  0
  4 10  2  0  0  0  0
  5  7  3  0  0  0  0
  8 12  1  0  0  0  0
  9 13  1  0  0  0  0
  9 14  1  0  0  0  0
M  CHG  1   7   1
M  END
$$$$
