
  -OEChem-12122420533D

 22 22  0     1  0  0  0  0  0999 V2000
   -1.5042    1.1048    0.7501 C   0  0  0  0  0  0  0  0  0  0  0  0
   -0.2869   -1.0946    1.4996 C   0  0  0  0  0  0  0  0  0  0  0  0
   -0.3864   -0.4616   -0.9618 C   0  0  0  0  0  0  0  0  0  0  0  0
   -0.5163   -0.0237    0.4896 C   0  0  1  0  0  0  0  0  0  0  0  0
    0.7288    0.3577   -0.4055 C   0  0  0  0  0  0  0  0  0  0  0  0
    2.0659   -0.2970   -0.1042 C   0  0  0  0  0  0  0  0  0  0  0  0
    0.8603    1.8152   -0.8144 C   0  0  0  0  0  0  0  0  0  0  0  0
   -1.4599    1.7131    1.9749 N   0  0  0  0  0  0  0  0  0  0  0  0
   -2.2446    1.5137   -0.1434 O   0  0  0  0  0  0  0  0  0  0  0  0
    0.0399   -2.2410    1.2532 O   0  0  0  0  0  0  0  0  0  0  0  0
   -0.4423   -0.6897    2.8007 O   0  0  0  0  0  0  0  0  0  0  0  0
   -0.2170   -1.5224   -1.1119 H   0  0  0  0  0  0  0  0  0  0  0  0
   -1.0905    0.0160   -1.6342 H   0  0  0  0  0  0  0  0  0  0  0  0
    2.5811    0.2239    0.7112 H   0  0  0  0  0  0  0  0  0  0  0  0
    2.7014   -0.2270   -0.9943 H   0  0  0  0  0  0  0  0  0  0  0  0
    1.9717   -1.3513    0.1574 H   0  0  0  0  0  0  0  0  0  0  0  0
    1.3328    2.4019   -0.0188 H   0  0  0  0  0  0  0  0  0  0  0  0
   -0.0998    2.2703   -1.0598 H   0  0  0  0  0  0  0  0  0  0  0  0
    1.5010    1.8770   -1.7013 H   0  0  0  0  0  0  0  0  0  0  0  0
   -2.2075    2.3717    2.1578 H   0  0  0  0  0  0  0  0  0  0  0  0
   -1.0449    1.2336    2.7629 H   0  0  0  0  0  0  0  0  0  0  0  0
   -0.2656   -1.4813    3.3451 H   0  0  0  0  0  0  0  0  0  0  0  0
  1  4  1  0  0  0  0
  1  8  1  0  0  0  0
  1  9  2  0  0  0  0
  2  4  1  0  0  0  0
  2 10  2  0  0  0  0
  2 11  1  0  0  0  0
  3  4  1  0  0  0  0
  3  5  1  0  0  0  0
  3 12  1  0  0  0  0
  3 13  1  0  0  0  0
  4  5  1  0  0  0  0
  5  6  1  0  0  0  0
  5  7  1  0  0  0  0
  6 14  1  0  0  0  0
  6 15  1  0  0  0  0
  6 16  1  0  0  0  0
  7 17  1  0  0  0  0
  7 18  1  0  0  0  0
  7 19  1  0  0  0  0
  8 20  1  0  0  0  0
  8 21  1  0  0  0  0
 11 22  1  0  0  0  0
M  END
$$$$
