34
1 1 BrC13H18N2
C                    -0.472553434050     1.030010398744     1.000044400372
C                    -0.088786416052    -0.227438015599     0.222739837445
C                     1.364039071733    -0.702803396803     0.274125495235
C                     0.832704850084    -0.000385669643    -0.952648643498
C                    -1.229976571042    -1.192548946453     0.014891173711
C                    -1.405676136989    -2.401085447713     0.723134983208
C                    -2.535774769394    -3.183912715681     0.450875594363
C                    -3.452317477179    -2.743939701180    -0.497381021164
C                    -3.217619203167    -1.519039103777    -1.137170800070
N                    -2.141377348540    -0.776807496189    -0.880584555393
Br                   -4.999946999045    -3.765605732035    -0.909730302630
C                    -0.445582277059    -2.878987053577     1.779184938339
N                    -0.360874393814    -1.892019161842     2.940327677723
C                    -1.560103461704    -1.865175409556     3.824677969274
C                    -2.755283609543    -1.037190550311     3.441611248521
C                    -1.872925103971    -0.609081424284     4.593833150239
H                    -0.780355010249     0.834927457871     2.038327484660
H                     0.365019094940     1.731434378729     1.042983638448
H                    -1.313355711478     1.527647144795     0.509058676303
H                     2.056193962529    -0.162718727258     0.915729854547
H                     1.595579914666    -1.756018126275     0.150711675180
H                     0.669958896659    -0.602582101533    -1.839957543667
H                     1.150294172640     1.018608307346    -1.148791886165
H                    -2.699318658551    -4.122200537452     0.973643146069
H                    -3.918911343942    -1.134755428901    -1.874579126720
H                    -0.766266190901    -3.828682972908     2.209483164651
H                     0.573690597487    -2.992042224441     1.412030004800
H                     0.463620922734    -2.114321470278     3.511578583056
H                    -0.182997051976    -0.961041335850     2.541482464204
H                    -1.704905232878    -2.832769657933     4.293377194028
H                    -2.712354965595    -0.456258903544     2.527240373968
H                    -3.728640290821    -1.466517302516     3.653426344163
H                    -2.226654684673    -0.731599400239     5.611944586643
H                    -1.237111642002     0.259263140515     4.442419368027
