
  -OEChem-12102412483D

 34 36  0     0  0  0  0  0  0999 V2000
    0.0360    0.7931    0.9582 C   0  0  0  0  0  0  0  0  0  0  0  0
    0.0661   -0.2765   -0.1287 C   0  0  0  0  0  0  0  0  0  0  0  0
    1.4093   -0.8699   -0.5455 C   0  0  0  0  0  0  0  0  0  0  0  0
    0.6802    0.0975   -1.4503 C   0  0  0  0  0  0  0  0  0  0  0  0
   -1.1513   -1.1602   -0.1495 C   0  0  0  0  0  0  0  0  0  0  0  0
   -1.3975   -2.1202    0.8565 C   0  0  0  0  0  0  0  0  0  0  0  0
   -2.6196   -2.8056    0.8554 C   0  0  0  0  0  0  0  0  0  0  0  0
   -3.5296   -2.5649   -0.1687 C   0  0  0  0  0  0  0  0  0  0  0  0
   -3.1870   -1.6342   -1.1586 C   0  0  0  0  0  0  0  0  0  0  0  0
   -2.0427   -0.9500   -1.1314 N   0  0  0  0  0  0  0  0  0  0  0  0
   -5.2005   -3.4690   -0.2236 Br  0  0  0  0  0  0  0  0  0  0  0  0
   -0.3888   -2.4183    1.9342 C   0  0  0  0  0  0  0  0  0  0  0  0
    0.0129   -3.8978    1.9098 N   0  3  0  0  0  0  0  0  0  0  0  0
    0.7936   -4.3195    0.7119 C   0  0  0  0  0  0  0  0  0  0  0  0
    1.6308   -5.5653    0.8139 C   0  0  0  0  0  0  0  0  0  0  0  0
    2.2898   -4.2018    0.7624 C   0  0  0  0  0  0  0  0  0  0  0  0
   -0.0441    0.3723    1.9678 H   0  0  0  0  0  0  0  0  0  0  0  0
    0.9456    1.3995    0.9242 H   0  0  0  0  0  0  0  0  0  0  0  0
   -0.8192    1.4597    0.8097 H   0  0  0  0  0  0  0  0  0  0  0  0
    2.3009   -0.5299   -0.0246 H   0  0  0  0  0  0  0  0  0  0  0  0
    1.4383   -1.9080   -0.8624 H   0  0  0  0  0  0  0  0  0  0  0  0
    0.2164   -0.2954   -2.3482 H   0  0  0  0  0  0  0  0  0  0  0  0
    1.0761    1.1034   -1.5478 H   0  0  0  0  0  0  0  0  0  0  0  0
   -2.8815   -3.5075    1.6461 H   0  0  0  0  0  0  0  0  0  0  0  0
   -3.8639   -1.4321   -1.9859 H   0  0  0  0  0  0  0  0  0  0  0  0
    0.5338   -1.8580    1.8010 H   0  0  0  0  0  0  0  0  0  0  0  0
   -0.7863   -2.2374    2.9372 H   0  0  0  0  0  0  0  0  0  0  0  0
    0.5573   -4.1058    2.7553 H   0  0  0  0  0  0  0  0  0  0  0  0
   -0.8351   -4.4746    1.9690 H   0  0  0  0  0  0  0  0  0  0  0  0
    0.2509   -4.0938   -0.1982 H   0  0  0  0  0  0  0  0  0  0  0  0
    1.6558   -6.1024    1.7587 H   0  0  0  0  0  0  0  0  0  0  0  0
    1.6667   -6.2038   -0.0623 H   0  0  0  0  0  0  0  0  0  0  0  0
    2.7918   -3.8906   -0.1469 H   0  0  0  0  0  0  0  0  0  0  0  0
    2.7498   -3.8292    1.6744 H   0  0  0  0  0  0  0  0  0  0  0  0
  1  2  1  0  0  0  0
  1 17  1  0  0  0  0
  1 18  1  0  0  0  0
  1 19  1  0  0  0  0
  2  3  1  0  0  0  0
  2  4  1  0  0  0  0
  2  5  1  0  0  0  0
  3  4  1  0  0  0  0
  3 20  1  0  0  0  0
  3 21  1  0  0  0  0
  4 22  1  0  0  0  0
  4 23  1  0  0  0  0
  5  6  2  0  0  0  0
  5 10  1  0  0  0  0
  6  7  1  0  0  0  0
  6 12  1  0  0  0  0
  7  8  2  0  0  0  0
  7 24  1  0  0  0  0
  8  9  1  0  0  0  0
  8 11  1  0  0  0  0
  9 10  2  0  0  0  0
  9 25  1  0  0  0  0
 12 13  1  0  0  0  0
 12 26  1  0  0  0  0
 12 27  1  0  0  0  0
 13 14  1  0  0  0  0
 13 28  1  0  0  0  0
 13 29  1  0  0  0  0
 14 15  1  0  0  0  0
 14 16  1  0  0  0  0
 14 30  1  0  0  0  0
 15 16  1  0  0  0  0
 15 31  1  0  0  0  0
 15 32  1  0  0  0  0
 16 33  1  0  0  0  0
 16 34  1  0  0  0  0
M  CHG  1  13   1
M  END
$$$$
