
  -OEChem-12122420533D

 34 36  0     0  0  0  0  0  0999 V2000
    1.1787   -0.6888   -0.5769 C   0  0  0  0  0  0  0  0  0  0  0  0
   -0.0737   -0.1222    0.0839 C   0  0  0  0  0  0  0  0  0  0  0  0
   -0.3194    1.3559   -0.0525 C   0  0  0  0  0  0  0  0  0  0  0  0
    0.0792    0.7954    1.2942 C   0  0  0  0  0  0  0  0  0  0  0  0
   -1.2660   -1.0373    0.0175 C   0  0  0  0  0  0  0  0  0  0  0  0
   -1.3426   -2.2244    0.7785 C   0  0  0  0  0  0  0  0  0  0  0  0
   -2.4119   -3.1029    0.5591 C   0  0  0  0  0  0  0  0  0  0  0  0
   -3.3977   -2.7533   -0.3578 C   0  0  0  0  0  0  0  0  0  0  0  0
   -3.2747   -1.5325   -1.0345 C   0  0  0  0  0  0  0  0  0  0  0  0
   -2.2334   -0.7185   -0.8573 N   0  0  0  0  0  0  0  0  0  0  0  0
   -4.8730   -3.9039   -0.6926 Br  0  0  0  0  0  0  0  0  0  0  0  0
   -0.3026   -2.5760    1.8093 C   0  0  0  0  0  0  0  0  0  0  0  0
   -0.9415   -2.7394    3.1935 N   0  3  0  0  0  0  0  0  0  0  0  0
   -1.4740   -1.4834    3.7946 C   0  0  0  0  0  0  0  0  0  0  0  0
   -0.5466   -0.6469    4.6282 C   0  0  0  0  0  0  0  0  0  0  0  0
   -1.6608   -1.4351    5.2866 C   0  0  0  0  0  0  0  0  0  0  0  0
    0.9956   -0.8722   -1.6402 H   0  0  0  0  0  0  0  0  0  0  0  0
    2.0086    0.0189   -0.4953 H   0  0  0  0  0  0  0  0  0  0  0  0
    1.5052   -1.6353   -0.1294 H   0  0  0  0  0  0  0  0  0  0  0  0
    0.4158    1.9336   -0.6035 H   0  0  0  0  0  0  0  0  0  0  0  0
   -1.3444    1.6840   -0.1843 H   0  0  0  0  0  0  0  0  0  0  0  0
   -0.6898    0.7710    2.0602 H   0  0  0  0  0  0  0  0  0  0  0  0
    1.0830    0.9871    1.6653 H   0  0  0  0  0  0  0  0  0  0  0  0
   -2.4797   -4.0600    1.0747 H   0  0  0  0  0  0  0  0  0  0  0  0
   -4.0346   -1.2150   -1.7453 H   0  0  0  0  0  0  0  0  0  0  0  0
    0.1877   -3.5304    1.5965 H   0  0  0  0  0  0  0  0  0  0  0  0
    0.4482   -1.7968    1.9191 H   0  0  0  0  0  0  0  0  0  0  0  0
   -1.7059   -3.4227    3.1292 H   0  0  0  0  0  0  0  0  0  0  0  0
   -0.2479   -3.1485    3.8308 H   0  0  0  0  0  0  0  0  0  0  0  0
   -2.1960   -1.0186    3.1339 H   0  0  0  0  0  0  0  0  0  0  0  0
    0.4729   -0.9946    4.7765 H   0  0  0  0  0  0  0  0  0  0  0  0
   -0.6398    0.4299    4.5413 H   0  0  0  0  0  0  0  0  0  0  0  0
   -2.5358   -0.9093    5.6535 H   0  0  0  0  0  0  0  0  0  0  0  0
   -1.3829   -2.3049    5.8765 H   0  0  0  0  0  0  0  0  0  0  0  0
  1  2  1  0  0  0  0
  1 17  1  0  0  0  0
  1 18  1  0  0  0  0
  1 19  1  0  0  0  0
  2  3  1  0  0  0  0
  2  4  1  0  0  0  0
  2  5  1  0  0  0  0
  3  4  1  0  0  0  0
  3 20  1  0  0  0  0
  3 21  1  0  0  0  0
  4 22  1  0  0  0  0
  4 23  1  0  0  0  0
  5  6  2  0  0  0  0
  5 10  1  0  0  0  0
  6  7  1  0  0  0  0
  6 12  1  0  0  0  0
  7  8  2  0  0  0  0
  7 24  1  0  0  0  0
  8  9  1  0  0  0  0
  8 11  1  0  0  0  0
  9 10  2  0  0  0  0
  9 25  1  0  0  0  0
 12 13  1  0  0  0  0
 12 26  1  0  0  0  0
 12 27  1  0  0  0  0
 13 14  1  0  0  0  0
 13 28  1  0  0  0  0
 13 29  1  0  0  0  0
 14 15  1  0  0  0  0
 14 16  1  0  0  0  0
 14 30  1  0  0  0  0
 15 16  1  0  0  0  0
 15 31  1  0  0  0  0
 15 32  1  0  0  0  0
 16 33  1  0  0  0  0
 16 34  1  0  0  0  0
M  CHG  1  13   1
M  END
$$$$
