34
1 1 BrC13H18N2
C                     1.178720704547    -0.688836441675    -0.576872704099
C                    -0.073676708029    -0.122184583729     0.083855997896
C                    -0.319413989079     1.355874126670    -0.052457188724
C                     0.079228099767     0.795363904722     1.294162676302
C                    -1.265975343078    -1.037316102896     0.017475400036
C                    -1.342621851823    -2.224424880077     0.778532725023
C                    -2.411862723703    -3.102875343156     0.559122052538
C                    -3.397735753081    -2.753319092067    -0.357792285819
C                    -3.274741591722    -1.532450354042    -1.034458191409
N                    -2.233383035321    -0.718519997003    -0.857314855404
Br                   -4.872997380914    -3.903948223298    -0.692624387401
C                    -0.302606061427    -2.575950569991     1.809307938298
N                    -0.941489185143    -2.739410796232     3.193540555269
C                    -1.473982437177    -1.483414777536     3.794574252532
C                    -0.546592665511    -0.646890553891     4.628184254944
C                    -1.660798095406    -1.435109211576     5.286576639554
H                     0.995626506219    -0.872197324150    -1.640180134171
H                     2.008577057207     0.018912645340    -0.495250151539
H                     1.505238336752    -1.635311957838    -0.129384695859
H                     0.415801988137     1.933582459794    -0.603458514246
H                    -1.344416720378     1.683952672893    -0.184336076698
H                    -0.689826675114     0.770995405298     2.060233669605
H                     1.082965866022     0.987055766903     1.665344235656
H                    -2.479738130765    -4.059987681094     1.074741631943
H                    -4.034570267770    -1.214982043731    -1.745337176413
H                     0.187739765684    -3.530420763159     1.596505085767
H                     0.448247478081    -1.796810259570     1.919128354709
H                    -1.705946108576    -3.422664630005     3.129213000941
H                    -0.247918353717    -3.148530191674     3.830752928944
H                    -2.195984129179    -1.018579985782     3.133892546765
H                     0.472864463248    -0.994639215005     4.776509213902
H                    -0.639838955344     0.429930019517     4.541287112661
H                    -2.535817077112    -0.909346458648     5.653489649148
H                    -1.382866688879    -2.304867330415     5.876532329419
