24   
torsion grid (-75,)
C        0.9640091527    0.1033813652    2.9786528639
C        0.8893887673   -1.1227133132    0.9152167933
C        0.0838064092   -0.8435042031    3.5099335692
C        0.0156478688   -2.0071528908    1.5428188840
C        5.4993877989    1.7522238432   -4.1807520879
C        1.3856035114   -0.0294533707    1.6472770161
C        4.5495122257    0.6551427123   -3.7787984790
C        4.1461919833    1.7437224485   -1.8356846203
C        2.3083075005    0.9497093770    1.0694729122
N       -0.3922721351   -1.8870826244    2.8189856860
N        5.3211041505    2.7682375404   -3.3900909486
N        3.7005521868    0.7995263203   -2.7894911477
N        5.2984879434    2.3299043945   -2.0579443086
N        2.7266707117    0.8322802751   -0.1425107461
N        3.5641675309    1.7940313098   -0.6010748455
O        4.4318292379   -0.3803331193   -4.6215360925
H        1.3119743334    0.9281053849    3.5962582508
H        1.1857994077   -1.2665402719   -0.1186127107
H       -0.2536605341   -0.7563333082    4.5416938212
H       -0.3819530798   -2.8605636627    0.9957282480
H        5.7413580158    1.9074493614   -5.2309796197
H        2.6246631372    1.7810873919    1.7141376243
H        3.9440439756    2.5072649719    0.0233366311
H        3.6850100537   -0.9232422419   -4.2996016920
24   
torsion grid (-60,)
C        0.9492198625    0.1138074275    2.9719563272
C        0.9017694642   -1.1343565617    0.9213807483
C        0.0663116112   -0.8305543454    3.5031769018
C        0.0239620931   -2.0152649762    1.5482076041
C        5.4299133821    1.7607968496   -4.1745096946
C        1.3862877751   -0.0313990989    1.6468212568
C        4.5186985621    0.6766879728   -3.8012529932
C        4.1755642171    1.7071236805   -1.8312639518
C        2.3113503744    0.9454853479    1.0690572767
N       -0.3987610402   -1.8831292951    2.8183646743
N        5.4102220482    2.7689687652   -3.3395093413
N        3.7289435084    0.7806496851   -2.7575468037
N        5.2967647938    2.3863698752   -2.0202258152
N        2.7423739626    0.8186772846   -0.1376748066
N        3.5833251787    1.7742987793   -0.5971093482
O        4.3873973720   -0.3611402797   -4.6415224140
H        1.2873982349    0.9461780862    3.5847296444
H        1.2101075383   -1.2882534217   -0.1074949412
H       -0.2829176373   -0.7335868000    4.5301530070
H       -0.3645722817   -2.8757525112    1.0056450281
H        5.6983793439    1.9360967921   -5.2134840732
H        2.6182506913    1.7840263458    1.7088586382
H        3.9562167304    2.4970347940    0.0200412771
H        3.6828889690   -0.9333989871   -4.2790573330
24   
torsion grid (-45,)
C        0.9411861408    0.1235743184    2.9655585525
C        0.9153415932   -1.1423331890    0.9260599954
C        0.0602056674   -0.8212586845    3.4991320990
C        0.0385437646   -2.0231544746    1.5543849652
C        5.4095185570    1.7461040803   -4.1772312663
C        1.3884896636   -0.0300370086    1.6447714151
C        4.4946489450    0.6908956369   -3.8211657920
C        4.1824465300    1.6935073949   -1.8364729839
C        2.3117946239    0.9473528499    1.0651676801
N       -0.3938353486   -1.8825479379    2.8203896971
N        5.4936279910    2.7489607891   -3.3297881743
N        3.7515039814    0.7626014944   -2.7372558916
N        5.2532383173    2.4630163826   -2.0253296399
N        2.7493208398    0.8155134353   -0.1388182957
N        3.5897616644    1.7683999884   -0.6000391267
O        4.3241780659   -0.3324638184   -4.6742740525
H        1.2701497615    0.9631982851    3.5734183541
H        1.2318588928   -1.3036360389   -0.0991825253
H       -0.2966366357   -0.7173705567    4.5228181916
H       -0.3408461391   -2.8907738127    1.0167049042
H        5.7209285932    1.8930500299   -5.2073095596
H        2.6118768628    1.7911805255    1.7011249769
H        3.9548718475    2.5005653263    0.0105620805
H        3.6331895563   -0.9086372685   -4.2931608764
24   
torsion grid (-30,)
C        0.9264675469    0.1195672899    2.9650172558
C        0.9246613182   -1.1621249426    0.9344157011
C        0.0355102863   -0.8185559524    3.4937029146
C        0.0368853750   -2.0351637803    1.5581000520
C        5.3725530109    1.7618300247   -4.1639372755
C        1.3908516297   -0.0457572332    1.6514769185
C        4.4889100015    0.7000347908   -3.8217527684
C        4.2035718964    1.6647147666   -1.8230917293
C        2.3242960452    0.9247594759    1.0774130682
N       -0.4124440213   -1.8836940445    2.8169420077
N        5.5409266692    2.7514324267   -3.3012921282
N        3.8005753858    0.7150378282   -2.6975804180
N        5.2029805075    2.5388165888   -2.0186392125
N        2.7724311771    0.7866050671   -0.1222723051
N        3.6246051904    1.7286586327   -0.5776170003
O        4.2976377104   -0.3031014098   -4.6953350535
H        1.2498583407    0.9628834948    3.5707731318
H        1.2547235295   -1.3324299929   -0.0851042581
H       -0.3348611791   -0.7057757755    4.5116240867
H       -0.3376760581   -2.9059627711    1.0221924846
H        5.7505796092    1.8929989744   -5.1729334153
H        2.6226899278    1.7694233517    1.7130288315
H        3.9610837926    2.4840825860    0.0207709434
H        3.6375389850   -0.9038427324   -4.2983337365
24   
torsion grid (-15,)
C        0.9232983395    0.1242944907    2.9564311246
C        0.9374624073   -1.1734660560    0.9369022265
C        0.0286497974   -0.8098133395    3.4860127387
C        0.0454442256   -2.0422223044    1.5605344596
C        5.3615116794    1.7479190872   -4.1775182126
C        1.3980267688   -0.0508507087    1.6478599825
C        4.4754356393    0.6972715773   -3.8397881565
C        4.2093569594    1.6487688590   -1.8339448927
C        2.3358015338    0.9150522192    1.0733105950
N       -0.4136267638   -1.8806882178    2.8145882549
N        5.5891147939    2.7217749676   -3.3057592933
N        3.8384300457    0.6728376477   -2.6841289127
N        5.1337771367    2.6016252777   -2.0566723247
N        2.7866663493    0.7710233078   -0.1248210848
N        3.6463191286    1.7046490183   -0.5801027007
O        4.2467766943   -0.2840346313   -4.7298391764
H        1.2417272824    0.9725059096    3.5579467552
H        1.2756718418   -1.3521375793   -0.0784920407
H       -0.3495184359   -0.6889239829    4.5001296643
H       -0.3242173851   -2.9177275994    1.0288985165
H        5.7934926070    1.8425836160   -5.1683432196
H        2.6351180399    1.7610584287    1.7066989673
H        3.9608362387    2.4791729728    0.0056933631
H        3.6020234203   -0.8933666788   -4.3210952157
24   
torsion grid (0,)
C        0.9217037980    0.1211379610    2.9558693585
C        0.9370528739   -1.1806977060    0.9389720843
C        0.0246865246   -0.8105818429    3.4856328813
C        0.0426860245   -2.0469176381    1.5627748765
C        5.3462247386    1.7453147696   -4.1874529481
C        1.3982061015   -0.0573533795    1.6483854888
C        4.4582317728    0.6998905699   -3.8494220891
C        4.1980206723    1.6469787482   -1.8403581514
C        2.3382524969    0.9060747247    1.0734118209
N       -0.4182851155   -1.8820855668    2.8156920918
N        5.6097536967    2.7011051110   -3.3041292124
N        3.8718443243    0.6386713140   -2.6675119994
N        5.0354551518    2.6697104902   -2.1030718931
N        2.7888858496    0.7623760505   -0.1249300705
N        3.6509619283    1.6938972823   -0.5789926389
O        4.1987013124   -0.2626097232   -4.7517061749
H        1.2405344632    0.9699612061    3.5563069412
H        1.2767355719   -1.3620004978   -0.0754604539
H       -0.3549907769   -0.6871094883    4.4988705993
H       -0.3273992491   -2.9229351915    1.0322925881
H        5.8311229240    1.8015125512   -5.1562962133
H        2.6393515138    1.7513167646    1.7069802716
H        3.9419380933    2.4862303186   -0.0049031343
H        3.5713335863   -0.8826510639   -4.3322237717
24   
torsion grid (15,)
C        0.9237658002    0.1239475038    2.9566707678
C        0.9440115019   -1.1780665835    0.9399291869
C        0.0246285773   -0.8070178972    3.4841793909
C        0.0474031359   -2.0436087793    1.5614447276
C        5.3406638433    1.7625520885   -4.1870902039
C        1.4037897045   -0.0549072153    1.6505360134
C        4.4478325061    0.7166359490   -3.8524780746
C        4.1938707472    1.6596179024   -1.8410458647
C        2.3458776849    0.9079746213    1.0779777384
N       -0.4171040129   -1.8782700939    2.8129984694
N        5.6316923517    2.6919397069   -3.2861435989
N        3.9144756475    0.6195371290   -2.6491381199
N        4.9373760577    2.7392920248   -2.1469904291
N        2.7959967088    0.7644675876   -0.1204973017
N        3.6607020894    1.6945495186   -0.5734618696
O        4.1607318139   -0.2236963418   -4.7694223702
H        1.2415536078    0.9726043515    3.5578971536
H        1.2865425922   -1.3597612225   -0.0734786649
H       -0.3578148957   -0.6831392028    4.4963304956
H       -0.3216757304   -2.9195194456    1.0300712840
H        5.8785469249    1.7829939822   -5.1291984500
H        2.6479764158    1.7520299004    1.7126465638
H        3.9269520171    2.5029075650   -0.0098713741
H        3.5507472148   -0.8574042025   -4.3446899757
24   
torsion grid (30,)
C        0.9159331047    0.1337806377    2.9598955323
C        0.9645048502   -1.1826256894    0.9527019653
C        0.0088455217   -0.7932094729    3.4807772379
C        0.0588307813   -2.0435913688    1.5674104193
C        5.3389032465    1.7913923942   -4.1871376992
C        1.4142608520   -0.0546672439    1.6620374392
C        4.4441334689    0.7375777341   -3.8439969347
C        4.2149446528    1.6637365587   -1.8167522922
C        2.3653488044    0.9036734114    1.0963351868
N       -0.4235748168   -1.8690800630    2.8109257534
N        5.6587603705    2.6707990532   -3.2528766337
N        3.9778191915    0.5997794699   -2.6180151648
N        4.8601996517    2.7813889497   -2.1795334278
N        2.8249377564    0.7574540104   -0.0979620528
N        3.7032004177    1.6817799880   -0.5410969306
O        4.1225846097   -0.1783097260   -4.7735655878
H        1.2255881466    0.9864770867    3.5596546297
H        1.3218811109   -1.3717711589   -0.0541990349
H       -0.3880832325   -0.6620978013    4.4864182909
H       -0.3025778318   -2.9233927241    1.0371983598
H        5.9200740273    1.7716678260   -5.1035196472
H        2.6656432307    1.7468836546    1.7329820583
H        3.9348034524    2.5103049157    0.0084858375
H        3.5366563849   -0.8290509136   -4.3405254612
24   
torsion grid (45,)
C        0.9163899523    0.1428720044    2.9517995705
C        0.9791921412   -1.1875950688    0.9537694812
C        0.0045143782   -0.7799014194    3.4718716073
C        0.0681411458   -2.0434490634    1.5676768382
C        5.3300033543    1.7976400063   -4.2175843394
C        1.4241145289   -0.0552230972    1.6590597960
C        4.4270474582    0.7342243608   -3.8556093968
C        4.2340363256    1.6540308434   -1.8164486784
C        2.3802937634    0.8985049805    1.0935940614
N       -0.4237426671   -1.8599870666    2.8061663469
N        5.6835180023    2.6118329492   -3.2462960308
N        4.0287869709    0.5643353102   -2.6126093979
N        4.7848255772    2.7887072568   -2.2453242325
N        2.8452641752    0.7463584211   -0.0976440277
N        3.7310230303    1.6670936923   -0.5387986183
O        4.0741033248   -0.1616968405   -4.7920509934
H        1.2222796104    0.9993828923    3.5480637653
H        1.3443365212   -1.3839848550   -0.0489547656
H       -0.4000202017   -0.6416378602    4.4735108876
H       -0.2898616930   -2.9266907824    1.0408963434
H        5.9538735536    1.7251724304   -5.1036646145
H        2.6791825194    1.7437643560    1.7282057765
H        3.9408159822    2.5086491820   -0.0003102994
H        3.5130818469   -0.8287789044   -4.3505336612
24   
torsion grid (60,)
C        0.9027617080    0.1473454373    2.9483074950
C        0.9901755068   -1.1973401236    0.9609937654
C       -0.0077328973   -0.7770412159    3.4679742783
C        0.0794474277   -2.0543811542    1.5737799471
C        5.3350142247    1.8233483745   -4.2218634180
C        1.4223065054   -0.0569975292    1.6612837133
C        4.4003636892    0.7558259365   -3.8587318691
C        4.2450550075    1.6556829257   -1.8029808861
C        2.3773420962    0.8983175895    1.0963518299
N       -0.4237214357   -1.8646699029    2.8067805716
N        5.7177673741    2.5499933550   -3.2023509514
N        4.0605275466    0.5450550339   -2.6082030584
N        4.7102683180    2.7943280888   -2.2939736346
N        2.8492203092    0.7419509457   -0.0914786302
N        3.7375028431    1.6640626196   -0.5298898693
O        4.0226850716   -0.1097801338   -4.8118745007
H        1.1985009069    1.0101297579    3.5406217281
H        1.3650473531   -1.3989865958   -0.0370829351
H       -0.4213310383   -0.6338474453    4.4652095729
H       -0.2685639907   -2.9438629131    1.0508299544
H        5.9931964370    1.7249780655   -5.0817458986
H        2.6689673709    1.7481185607    1.7283916063
H        3.9340380519    2.5107160170    0.0056687493
H        3.4791199024   -0.7946252577   -4.3751630849
24   
torsion grid (75,)
C        0.8876805615    0.1571941396    2.9421119923
C        1.0059045587   -1.2044298437    0.9677397886
C       -0.0248886462   -0.7666776105    3.4591166214
C        0.0916213008   -2.0601304118    1.5771695516
C        5.3212360019    1.8738549014   -4.2650782063
C        1.4237695813   -0.0560491388    1.6634021824
C        4.3649827989    0.7814323114   -3.8654385072
C        4.2820481269    1.6458936249   -1.7756080460
C        2.3805593859    0.8990780585    1.1010413123
N       -0.4275042600   -1.8618645294    2.8021722880
N        5.7614095858    2.4566777623   -3.1900435433
N        4.0965482171    0.5185151609   -2.6088468722
N        4.6843897828    2.7578538315   -2.3436077328
N        2.8648970158    0.7342302618   -0.0804719676
N        3.7581016012    1.6564545040   -0.5143046172
O        3.9875496013   -0.0721069762   -4.8272594910
H        1.1722487647    1.0265680857    3.5302311855
H        1.3939865585   -1.4129114514   -0.0238651374
H       -0.4513180631   -0.6167473499    4.4499236852
H       -0.2459619285   -2.9557961119    1.0580139733
H        5.9746355252    1.7401903491   -5.1258130567
H        2.6617294560    1.7555031070    1.7290159908
H        3.9426832270    2.5071630553    0.0196629499
H        3.4957971506   -0.7938550474   -4.3874919486
