15   
torsion grid (-165,)
C        2.1518584073   -3.8402469274    1.1220998612
C        2.3423392183   -2.3163730787    1.1369774674
C        2.8499293251   -1.8521020297    2.5174860713
C        1.0532713408   -1.6026472516    0.7718238558
C        0.9565805177   -0.3152134725    0.4218051565
H        1.8074291275   -4.1915049935    0.1431411180
H        1.4078005146   -4.1437745598    1.8684833408
H        3.0883036562   -4.3577400149    1.3560891894
H        3.1052776751   -2.0517707279    0.3936820176
H        3.0272955249   -0.7726421410    2.5304181111
H        2.1132304874   -2.0786676149    3.2969197040
H        3.7863200682   -2.3593925911    2.7780079590
H        0.1364348589   -2.1883962307    0.8615701172
H       -0.0041987257    0.1471382878    0.2094549385
H        1.8368193552    0.3192551296    0.3239898107
15   
torsion grid (-150,)
C        2.1747797587   -3.8023552399    1.0752186261
C        2.3573103986   -2.2803175079    1.1837615621
C        2.8614257571   -1.9011257172    2.5916171577
C        1.0648812403   -1.5540096906    0.8809732640
C        0.9728415990   -0.3330490645    0.3425354665
H        1.8254304411   -4.0939581271    0.0788462108
H        1.4378214504   -4.1560286780    1.8063775819
H        3.1162252010   -4.3267379805    1.2715345656
H        3.1130684992   -1.9599194201    0.4557879326
H        3.0423615463   -0.8247236371    2.6670486541
H        2.1218285419   -2.1705968208    3.3549149912
H        3.7939225508   -2.4280255409    2.8259013363
H        0.1501116775   -2.0571770127    1.2022141025
H        0.0127757956    0.1562220408    0.1974115691
H        1.8565421649    0.2140314327    0.0160948701
15   
torsion grid (-135,)
C        2.1207932896   -3.7992472958    1.0311219769
C        2.3169329892   -2.2838350726    1.2066187856
C        2.8000505404   -1.9644293505    2.6353803127
C        1.0392733734   -1.5364683295    0.9103756257
C        0.9433678651   -0.4266636783    0.1701682525
H        1.7948464000   -4.0439699081    0.0147871209
H        1.3615337733   -4.1752811623    1.7275064434
H        3.0522330011   -4.3405601216    1.2306157313
H        3.0854532982   -1.9431703401    0.5015408916
H        2.9850445844   -0.8928248522    2.7575032603
H        2.0487721404   -2.2623057726    3.3766618568
H        3.7264589657   -2.5046255403    2.8626190578
H        0.1410578322   -1.9293680896    1.3930729896
H       -0.0060030383    0.0833607055    0.0253815723
H        1.8131411619    0.0047075520   -0.3235499237
15   
torsion grid (-120,)
C        2.1566802477   -3.7876690560    0.9937971071
C        2.3841410753   -2.2921208065    1.2794625298
C        2.9150128935   -2.0835064458    2.7097423926
C        1.1117129348   -1.5106504416    1.0672572926
C        0.9492487142   -0.5124776604    0.1920722117
H        1.8097926176   -3.9458575648   -0.0322975156
H        1.4019738716   -4.2039024391    1.6720798896
H        3.0822197026   -4.3570470747    1.1358542058
H        3.1358572507   -1.9156244736    0.5742437214
H        3.1120453396   -1.0250963599    2.9072562927
H        2.1869740807   -2.4342983234    3.4512213995
H        3.8448656855   -2.6422150544    2.8657352530
H        0.2694522722   -1.8034062512    1.6992939752
H        0.0019574133    0.0122881394    0.0932458883
H        1.7613077874   -0.1874375644   -0.4567906821
15   
torsion grid (-105,)
C        2.0921980746   -3.7041963195    0.9425325830
C        2.3511883409   -2.2278674527    1.2992214329
C        2.8511743692   -2.0869488907    2.7466414338
C        1.1056160532   -1.4059122057    1.0742114452
C        0.9043719965   -0.5658414321    0.0532043770
H        1.7828751264   -3.8065181204   -0.1020922286
H        1.2982848975   -4.1255592417    1.5711022985
H        2.9952670574   -4.3059133450    1.0973847459
H        3.1308265294   -1.8501238133    0.6253438090
H        3.0619902336   -1.0412429441    2.9931337529
H        2.1001526595   -2.4550509366    3.4562655160
H        3.7677776064   -2.6667781942    2.9021552938
H        0.3022630355   -1.5592646552    1.7991502976
H       -0.0311571660   -0.0244378675   -0.0655307247
H        1.6743514386   -0.3866428626   -0.6960007950
15   
torsion grid (-90,)
C        2.1486117013   -3.6569283405    0.8652427897
C        2.3986248881   -2.1988722149    1.2983581406
C        2.8964740455   -2.1235762992    2.7494656028
C        1.1501441562   -1.3682051443    1.1020379273
C        0.8355325309   -0.6982155182   -0.0120160479
H        1.8507951920   -3.7055325442   -0.1862861848
H        1.3483790514   -4.1114759823    1.4617197237
H        3.0525885348   -4.2625280275    0.9996742550
H        3.1797426716   -1.7905964231    0.6439110177
H        3.0966267652   -1.0890191584    3.0477225618
H        2.1488906337   -2.5336250943    3.4395795812
H        3.8192347267   -2.6995797337    2.8787779562
H        0.4318343291   -1.3871804029    1.9250539708
H       -0.1031009688   -0.1578267726   -0.1077309789
H        1.5140869968   -0.6579370637   -0.8632936044
15   
torsion grid (-75,)
C        2.1254059708   -3.5721585672    0.8113561787
C        2.4063515515   -2.1468220208    1.3268961838
C        2.8734051550   -2.1626750801    2.7889979208
C        1.1905370948   -1.2576705765    1.1469070848
C        0.7766840756   -0.7441877769   -0.0168323745
H        1.8430692308   -3.5574659396   -0.2453391319
H        1.3035077653   -4.0347700003    1.3704991361
H        3.0114703799   -4.2078138857    0.9248859324
H        3.2179377764   -1.7334095284    0.7136410601
H        3.0985513741   -1.1517922500    3.1458527347
H        2.0980169994   -2.5838679957    3.4406672220
H        3.7753102763   -2.7724901182    2.9084871062
H        0.5844201908   -1.0847900646    2.0385478347
H       -0.1295663272   -0.1477323576   -0.0869733829
H        1.3375848539   -0.8925223828   -0.9390065359
15   
torsion grid (-60,)
C        2.1600690706   -3.5184934099    0.7765623374
C        2.4367551588   -2.1151762871    1.3482344614
C        2.8380311352   -2.1917733050    2.8281545194
C        1.2486434839   -1.1859705489    1.1540183951
C        0.7148781894   -0.8410964358   -0.0231594185
H        1.9112971879   -3.4735200977   -0.2877206869
H        1.3176409832   -3.9887770423    1.2964817285
H        3.0374152417   -4.1649816172    0.8944564092
H        3.2848808594   -1.6947454354    0.7909732389
H        3.0704625650   -1.1991665148    3.2295561323
H        2.0248595385   -2.6153944993    3.4301577300
H        3.7201078320   -2.8260257907    2.9662485353
H        0.7929404914   -0.7897926029    2.0631079709
H       -0.1448057790   -0.1783931702   -0.0839153645
H        1.1199701715   -1.2014940202   -0.9677532243
15   
torsion grid (-45,)
C        2.3067527365   -3.5703395757    0.7296121219
C        2.5413861297   -2.1761171238    1.3353320953
C        2.8582371504   -2.2842785866    2.8352980006
C        1.3698972402   -1.2340978041    1.1054236050
C        0.7033907582   -1.0635054535   -0.0421620064
H        2.1306853202   -3.5221275750   -0.3490918100
H        1.4346405484   -4.0472701970    1.1902330714
H        3.1774514706   -4.2145140261    0.8958138356
H        3.4199639421   -1.7373501769    0.8414186574
H        3.0720896541   -1.3010172946    3.2690801842
H        2.0104387086   -2.7148431682    3.3817038201
H        3.7290330901   -2.9251034971    3.0099103664
H        1.0802332445   -0.6207636730    1.9604115137
H       -0.1093878338   -0.3455470044   -0.1194700808
H        0.9365581632   -1.6310497587   -0.9409498263
15   
torsion grid (-30,)
C        2.3137732360   -3.6636151170    0.6762264262
C        2.5530733244   -2.2897005587    1.3186336551
C        2.7822006401   -2.4374064960    2.8333710037
C        1.4348329414   -1.2989332275    1.0545900538
C        0.6392299715   -1.2506478394   -0.0203086717
H        2.2242515985   -3.5987371542   -0.4125638049
H        1.3938432763   -4.1147544223    1.0639015578
H        3.1461911715   -4.3404757749    0.8970744913
H        3.4714917362   -1.8638747978    0.8880337210
H        2.9990966340   -1.4699444080    3.2999314375
H        1.8931728811   -2.8534663080    3.3218785055
H        3.6241160885   -3.1065491028    3.0408444805
H        1.3223982848   -0.5167862496    1.8078918005
H       -0.1103069571   -0.4704131185   -0.1280179684
H        0.6915026526   -1.9860788911   -0.8196544932
15   
torsion grid (-15,)
C        2.3121623349   -3.5512600317    0.6460561911
C        2.5480900152   -2.2012779809    1.3336254634
C        2.6940007848   -2.3855355222    2.8563740686
C        1.4793313529   -1.1711400189    1.0384631836
C        0.5584223899   -1.2161064066    0.0685506021
H        2.2942458072   -3.4572265038   -0.4445013484
H        1.3589454030   -3.9880139134    0.9642047695
H        3.1099725214   -4.2559827015    0.9033110225
H        3.4989723239   -1.7883248159    0.9638557250
H        2.8964620447   -1.4318668105    3.3564801411
H        1.7750841609   -2.8009099749    3.2859271983
H        3.5167065122   -3.0695240895    3.0913845890
H        1.5097384025   -0.2857048123    1.6767618849
H       -0.1500361366   -0.4028829285   -0.0691261493
H        0.4660434847   -2.0604316973   -0.6098889617
15   
torsion grid (0,)
C        2.3894197384   -3.6927628317    0.6449037784
C        2.5795064227   -2.3363504195    1.3314983343
C        2.6285903483   -2.4949813411    2.8642623792
C        1.5401666212   -1.3053099274    0.9552249650
C        0.5124954437   -1.4625778750    0.1126574047
H        2.4081119480   -3.6000522483   -0.4458334899
H        1.4345180129   -4.1484103836    0.9306728430
H        3.1880409517   -4.3830544103    0.9362661932
H        3.5537538511   -1.9312937403    1.0178027275
H        2.7956985681   -1.5327661550    3.3608248243
H        1.6846627071   -2.9063807280    3.2391740784
H        3.4373232767   -3.1719131404    3.1609190978
H        1.6630384996   -0.3364560009    1.4437112589
H       -0.1822215481   -0.6491902031   -0.0821685287
H        0.3246254967   -2.3975047159   -0.4089434702
15   
torsion grid (15,)
C        2.4291215843   -3.6219249756    0.5960095086
C        2.6033768816   -2.2831651883    1.3214131162
C        2.5669242683   -2.4653365856    2.8522006069
C        1.6083104498   -1.2229654717    0.9066159030
C        0.4732951540   -1.4079197043    0.2222024149
H        2.4694002923   -3.4958453858   -0.4906270100
H        1.4710001134   -4.0907021895    0.8479327000
H        3.2215750799   -4.3193248568    0.8875617022
H        3.6010378536   -1.8952817452    1.0669673381
H        2.7213987108   -1.5136685966    3.3723627098
H        1.5967584189   -2.8655279582    3.1666792254
H        3.3481092484   -3.1602689453    3.1801582139
H        1.8382749413   -0.2165980717    1.2621521701
H       -0.1943233527   -0.5772097648    0.0068846895
H        0.1747854365   -2.3820959348   -0.1568816869
15   
torsion grid (30,)
C        2.4737707518   -3.6289514473    0.5842983662
C        2.5848717712   -2.3056270657    1.3530914168
C        2.4728028564   -2.5248214022    2.8751137373
C        1.5923258083   -1.2523542410    0.9062202489
C        0.3721650172   -1.4702069136    0.4012580606
H        2.5531288756   -3.4672269161   -0.4951739096
H        1.5198767133   -4.1308416941    0.7817625569
H        3.2711652023   -4.3152802022    0.8891654097
H        3.5872550563   -1.8989875262    1.1581168348
H        2.5789455419   -1.5827720987    3.4238559303
H        1.4953964828   -2.9502076003    3.1275779429
H        3.2503162090   -3.2121880265    3.2276629218
H        1.8917308136   -0.2209509799    1.1006990130
H       -0.2930265607   -0.6444247639    0.1611459596
H       -0.0002064534   -2.4703534500    0.1919251607
15   
torsion grid (45,)
C        2.5284082064   -3.6126604381    0.5472688161
C        2.6019314589   -2.3008570812    1.3449040678
C        2.4091363497   -2.5494356719    2.8538727068
C        1.6273714112   -1.2463422911    0.8502476411
C        0.3416607436   -1.4509577787    0.5397016538
H        2.6778941676   -3.4326991703   -0.5217554674
H        1.5572309352   -4.1039544378    0.6722694701
H        3.2971953725   -4.3140145770    0.8902401424
H        3.6122936391   -1.8941216889    1.2079768918
H        2.4816629457   -1.6171772883    3.4239065538
H        1.4209256830   -2.9811467695    3.0463668961
H        3.1682304285   -3.2424837456    3.2347822874
H        2.0072789315   -0.2243609634    0.8168423549
H       -0.3037928179   -0.6299018978    0.2378355481
H       -0.1103973912   -2.4405979673    0.5618840881
15   
torsion grid (60,)
C        2.6061831511   -3.5957131778    0.5247415112
C        2.6216890612   -2.2935336019    1.3463345596
C        2.3521188063   -2.5778913018    2.8361871110
C        1.6503272474   -1.2622415792    0.7920983817
C        0.3278908170   -1.4302832615    0.6735682114
H        2.8236384625   -3.4007301269   -0.5302165761
H        1.6254223946   -4.0805422211    0.5783812817
H        3.3521675793   -4.3029208864    0.9050426830
H        3.6295467843   -1.8679042432    1.2693642651
H        2.3890430721   -1.6579363885    3.4285044187
H        1.3601875811   -3.0219172529    2.9730672779
H        3.0947718336   -3.2761246248    3.2391695179
H        2.0776536480   -0.3087697280    0.4803633241
H       -0.3093355179   -0.6449315092    0.2749857636
H       -0.1671367034   -2.3545966593    0.9669037291
15   
torsion grid (75,)
C        1.8876328316   -3.7395060920    1.5310097715
C        2.5692220705   -2.4295918218    1.0868474671
C        3.3148399539   -1.7808426090    2.2658905350
C        1.5591886210   -1.4918372537    0.4461266108
C        0.6348360304   -0.7764251081    1.0980600188
H        1.3653957061   -4.2209534611    0.6975090405
H        1.1490470064   -3.5381719093    2.3143154358
H        2.6247783542   -4.4474759302    1.9273065447
H        3.3136872138   -2.6833601581    0.3222786941
H        3.8125622415   -0.8556733659    1.9589076048
H        2.6279908690   -1.5359544911    3.0831324066
H        4.0728240166   -2.4641740756    2.6650200068
H        1.5652961935   -1.4503256087   -0.6437240935
H       -0.0797275019   -0.1557675695    0.5633300290
H        0.5608774827   -0.7754040887    2.1839591337
15   
torsion grid (90,)
C        1.9099336104   -3.7387103882    1.4922126535
C        2.5529539469   -2.3890189614    1.1095729421
C        3.2492544976   -1.7638097874    2.3275901491
C        1.5116728248   -1.4854421533    0.4790436618
C        0.7186797769   -0.6184147078    1.1199444209
H        1.4153853785   -4.2067413971    0.6340848233
H        1.1552306966   -3.5892568919    2.2715851512
H        2.6654961778   -4.4368456835    1.8706700126
H        3.3196064132   -2.5871416958    0.3490377136
H        3.7002592278   -0.7986116382    2.0766321436
H        2.5458308752   -1.6033882763    3.1518770177
H        4.0387683398   -2.4265712340    2.6983629384
H        1.3511268038   -1.6332133603   -0.5902596831
H       -0.0435809434   -0.0541620209    0.5884183068
H        0.8092588299   -0.4258036655    2.1865704183
15   
torsion grid (105,)
C        1.9579565077   -3.7796769807    1.4586985617
C        2.5392262112   -2.3904972196    1.1224201544
C        3.1990190445   -1.7691048792    2.3598398863
C        1.4622211117   -1.5264711397    0.5042591742
C        0.8039654181   -0.5199696590    1.0913182528
H        1.4972258941   -4.2466383490    0.5812144637
H        1.1888005392   -3.6913286275    2.2335039117
H        2.7421151781   -4.4514042007    1.8259984699
H        3.3176966236   -2.5332910377    0.3595106697
H        3.6110512029   -0.7790848697    2.1395659164
H        2.4828040210   -1.6630485847    3.1822831448
H        4.0146421878   -2.4065423588    2.7174756627
H        1.1625227353   -1.8189073544   -0.5040258675
H        0.0085840654    0.0090815932    0.5721154346
H        1.0400040284   -0.1775823868    2.0958140868
15   
torsion grid (120,)
C        1.9926560126   -3.8066014579    1.4006987996
C        2.4927553084   -2.3748038697    1.1211289171
C        3.1128484727   -1.7542461278    2.3773336469
C        1.3775189823   -1.5537154391    0.5155545779
C        0.8378070576   -0.4337906448    1.0107982048
H        1.5763676074   -4.2685676646    0.4986976907
H        1.2077920726   -3.7965388015    2.1651657613
H        2.8102225949   -4.4424188186    1.7582135651
H        3.2812879389   -2.4512215385    0.3572604630
H        3.5045853200   -0.7511492860    2.1798191874
H        2.3766506780   -1.6783362271    3.1856157323
H        3.9399630605   -2.3735461099    2.7400383006
H        0.9699514804   -1.9553757237   -0.4144310002
H        0.0212802531    0.0699739187    0.4992217439
H        1.1879630369    0.0225099759    1.9331105664
15   
torsion grid (135,)
C        2.0377861006   -3.8248393401    1.4710851511
C        2.4891240724   -2.3673783486    1.2584211590
C        3.1008119883   -1.7792924720    2.5340709514
C        1.3539785554   -1.5486855629    0.6854633103
C        0.9615534820   -0.3285130817    1.0702132918
H        1.6383472035   -4.2566013609    0.5467911930
H        1.2528385319   -3.8811176052    2.2340829405
H        2.8754768902   -4.4495118242    1.7998104804
H        3.2755570190   -2.3882748479    0.4878025465
H        3.5031122519   -0.7752873336    2.3652763516
H        2.3542349935   -1.7155833095    3.3338895913
H        3.9217962178   -2.4105300856    2.8900957932
H        0.8304961121   -2.0182868651   -0.1498880328
H        0.1379302823    0.1778993934    0.5728406864
H        1.4335563311    0.2036628734    1.8921409174
15   
torsion grid (150,)
C        2.2222952415   -3.8207286130    1.5950179661
C        2.5471376860   -2.3286705275    1.4060510168
C        3.1208929635   -1.7092512481    2.6862039712
C        1.3442047620   -1.5904772465    0.8545317523
C        1.0185775856   -0.3091708735    1.0622360838
H        1.8611528184   -4.2685838473    0.6626569551
H        1.4455065835   -3.9592515508    2.3564269948
H        3.1094957812   -4.3780820857    1.9142483813
H        3.3266707979   -2.2719997846    0.6303441162
H        3.4530697844   -0.6787241864    2.5270615638
H        2.3714252380   -1.7032810895    3.4855588715
H        3.9860141964   -2.2833433130    3.0348601112
H        0.7224167068   -2.1716947328    0.1706995807
H        0.1492370100    0.1325938569    0.5813549356
H        1.5884782197    0.3388366538    1.7236488866
15   
torsion grid (165,)
C        2.1732599292   -3.8761827168    1.2402207566
C        2.4620210404   -2.3700664213    1.1391041619
C        3.0468329362   -1.8249652602    2.4511546183
C        1.2241589733   -1.6181817070    0.6792726745
C        1.0214028841   -0.2972613863    0.7475205517
H        1.8097964321   -4.2748415530    0.2865871279
H        1.4096035352   -4.0780981831    2.0010924178
H        3.0753492808   -4.4329309560    1.5154057602
H        3.2242274220   -2.2400279022    0.3565642645
H        3.3247890040   -0.7702288916    2.3666453648
H        2.3195867657   -1.9163371784    3.2654995416
H        3.9472028696   -2.3825443380    2.7318275881
H        0.4535779602   -2.2282078899    0.2044886148
H        0.1113072586    0.1518916629    0.3575731045
H        1.7425821874    0.3815733407    1.1977207832
15   
torsion grid (180,)
C        2.1270260334   -3.8627109609    1.1515326634
C        2.3767455957   -2.3478898466    1.1145002545
C        2.9257171860   -1.8523231254    2.4652578741
C        1.1142853257   -1.6025401732    0.7080931307
C        0.9962803229   -0.2759745860    0.5814640549
H        1.7689841636   -4.2315799669    0.1838898618
H        1.3720626339   -4.1133675730    1.9065939267
H        3.0429536410   -4.4086022737    1.4015618785
H        3.1426642065   -2.1510725237    0.3519804446
H        3.1403238651   -0.7798744929    2.4428848992
H        2.1984834537   -2.0304494929    3.2653754488
H        3.8526700598   -2.3775154964    2.7227606417
H        0.2361712987   -2.2186520731    0.5075190696
H        0.0559257151    0.1826206477    0.2858676712
H        1.8310238290    0.3991792145    0.7634206387
