32   
torsion grid (-75,)
C        2.9415377296   -7.4253520926    5.5148237410
C        1.6741204508   -7.0070884229    5.9428745394
C        3.4638347621   -6.9502138807    4.3069891099
C        0.9326642574   -6.1180967282    5.1689587440
C        2.7319925318   -6.0532548000    3.5275061793
C        1.4629356211   -5.6218131749    3.9600679227
C        0.6606039295   -4.7049456139    3.1591500358
C        1.1507953273   -3.8714383922    1.8870979175
C        1.0062045310   -0.1981358914    0.5696307571
C        1.3766095361   -0.5723620891    2.0105901695
C        0.7508453955   -1.4529963486   -0.2750993045
C        0.3007028165   -1.4568333895    2.6600381210
C       -0.3107908821   -2.3574075924    0.3704787871
C        0.0371246148   -2.7014473851    1.8167157307
N       -0.2751112650   -3.9375189336    3.6342450676
O        2.1202604896   -4.0746367940    1.2002239246
O       -0.9270828534   -3.6261137778    2.3334644430
H        3.5147657507   -8.1252309918    6.1174247571
H        1.2640301187   -7.3846766580    6.8756631322
H        4.4438995295   -7.2792464590    3.9722388621
H       -0.0593856443   -5.8030046128    5.4786377140
H        3.1352623294   -5.6802279213    2.5927145519
H        1.8027899917    0.4044635174    0.1186675634
H        0.1027900183    0.4273976131    0.5800127220
H        2.3366259443   -1.1041273427    2.0132183286
H        1.5153607311    0.3286929317    2.6180712476
H        0.4223124981   -1.1759324722   -1.2829484999
H        1.6837668326   -2.0159586262   -0.3861567435
H        0.5824032967   -1.7298222995    3.6794957090
H       -0.6478419895   -0.9086780060    2.7284745243
H       -1.2810276828   -1.8442270760    0.3830162403
H       -0.4423792880   -3.2791069692   -0.2050334944
32   
torsion grid (-60,)
C        2.9400893439   -7.4151564154    5.4929998139
C        1.6372573154   -7.0716888937    5.8799094421
C        3.4962745996   -6.8563541610    4.3381344275
C        0.8960322759   -6.1741574980    5.1162778677
C        2.7628935276   -5.9496145077    3.5701667827
C        1.4573956061   -5.5948042584    3.9595823168
C        0.6546221628   -4.6646876598    3.1683678827
C        1.1212627577   -3.8459274861    1.9303446888
C        1.0260254406   -0.2371672968    0.5490535860
C        1.4357816798   -0.6062757691    1.9809664972
C        0.7205921672   -1.4931602598   -0.2774707436
C        0.3604002823   -1.4617485532    2.6660814170
C       -0.3374802793   -2.3749249317    0.4045060206
C        0.0391855407   -2.7157694765    1.8461394174
N       -0.3683754242   -4.0200183997    3.6417488851
O        2.1210262687   -4.0087546019    1.2670026960
O       -1.0062698677   -3.5283602201    2.4212249654
H        3.5145564123   -8.1214705310    6.0868036705
H        1.2005069480   -7.5131758593    6.7716950862
H        4.5040406267   -7.1266149085    4.0343635276
H       -0.1203404947   -5.9142054488    5.3960377797
H        3.1931318462   -5.5150013541    2.6752819726
H        1.8188709523    0.3462321866    0.0674478134
H        0.1354556284    0.4057216931    0.5829704309
H        2.3849407482   -1.1561396882    1.9582472642
H        1.6099190855    0.2972308021    2.5757198363
H        0.3651300929   -1.2161354773   -1.2761880138
H        1.6394241692   -2.0729656345   -0.4139702168
H        0.6614584697   -1.7366637934    3.6808772989
H       -0.5751536975   -0.8955673824    2.7528956549
H       -1.2985473721   -1.8464998772    0.4394771615
H       -0.4996416147   -3.2985628758   -0.1600953582
32   
torsion grid (-45,)
C        2.9090162697   -7.4604432471    5.4598659012
C        1.5837325252   -7.1618120657    5.8059392186
C        3.5026384135   -6.8241919994    4.3661031557
C        0.8587606698   -6.2338814462    5.0633442367
C        2.7849598332   -5.8865750105    3.6194182055
C        1.4565464923   -5.5792012565    3.9670930516
C        0.6766002339   -4.6114825095    3.1922334462
C        1.1487164923   -3.7801729476    2.0046117546
C        1.0256669157   -0.2616483183    0.4902807624
C        1.4701270408   -0.5878284270    1.9225100332
C        0.6988863712   -1.5407581463   -0.2917380175
C        0.4076298718   -1.4169391927    2.6564222661
C       -0.3461162343   -2.4000631791    0.4373384363
C        0.0573161995   -2.6989771934    1.8821230024
N       -0.4240983554   -4.0808119594    3.6367881532
O        2.1871575603   -3.8826172187    1.3808656547
O       -1.0257345127   -3.4163102527    2.5249355556
H        3.4709968005   -8.1898131555    6.0375328532
H        1.1168806733   -7.6609326733    6.6509338887
H        4.5281330936   -7.0572727007    4.0921189812
H       -0.1721417192   -6.0064723551    5.3163703757
H        3.2453990407   -5.3939149808    2.7710303959
H        1.8078547579    0.3046378722   -0.0275738974
H        0.1374043882    0.3843916176    0.5257840584
H        2.4170638967   -1.1399644427    1.8944011104
H        1.6577069754    0.3331371117    2.4856942087
H        0.3210787088   -1.2917167616   -1.2896207172
H        1.6133966772   -2.1260716992   -0.4315698417
H        0.7295962719   -1.6685684839    3.6717375568
H       -0.5237776058   -0.8456837530    2.7469092363
H       -1.3061142944   -1.8701321204    0.4756242598
H       -0.5201585565   -3.3402514160   -0.0956273080
32   
torsion grid (-30,)
C        2.8845576641   -7.5343921993    5.4114226426
C        1.5421693334   -7.2742513198    5.7204196093
C        3.5122815459   -6.8181312870    4.3890136429
C        0.8349725723   -6.3059797219    5.0126333746
C        2.8115685915   -5.8409213195    3.6768585888
C        1.4657904502   -5.5737859032    3.9867998729
C        0.7109353984   -4.5564533978    3.2458885067
C        1.1939178251   -3.6992264911    2.1097951490
C        1.0053763671   -0.2907766746    0.4186169578
C        1.4796879295   -0.5414331868    1.8565872468
C        0.6761194386   -1.6093049731   -0.2941882268
C        0.4380187211   -1.3408891566    2.6498961921
C       -0.3495515482   -2.4392406697    0.4934745273
C        0.0824282013   -2.6653393026    1.9448931331
N       -0.4527817424   -4.1307620588    3.6452191139
O        2.2572634792   -3.7522776562    1.5153024315
O       -1.0081450917   -3.3087917445    2.6553217947
H        3.4330229515   -8.2940400816    5.9624458377
H        1.0481664816   -7.8331642133    6.5108700049
H        4.5515967236   -7.0190535508    4.1427820724
H       -0.2070339163   -6.1061587098    5.2419668174
H        3.2988331457   -5.2884224668    2.8821099196
H        1.7732864458    0.2549531842   -0.1408064579
H        0.1122936126    0.3493356411    0.4379141450
H        2.4305801053   -1.0858107758    1.8383410871
H        1.6666636431    0.4080432364    2.3705546440
H        0.2778027690   -1.4120500069   -1.2956776495
H        1.5929410878   -2.1933464274   -0.4218001115
H        0.7800776080   -1.5442367608    3.6699853125
H       -0.4958164305   -0.7727412293    2.7299856953
H       -1.3127379592   -1.9149427929    0.5238354100
H       -0.5257155901   -3.4057859647    0.0105632618
32   
torsion grid (-15,)
C        2.8772819899   -7.6484418954    5.3465455819
C        1.5371976404   -7.3854423352    5.6630730579
C        3.5194052236   -6.8901849701    4.3645929674
C        0.8472257493   -6.3725363774    5.0022752977
C        2.8346909537   -5.8697267299    3.6982530220
C        1.4908653343   -5.6013677041    4.0138974720
C        0.7570083688   -4.5335969927    3.3202319027
C        1.2616251262   -3.6154707576    2.2589512511
C        0.9549939378   -0.3390104041    0.3581001958
C        1.4412370202   -0.4753003567    1.8074783590
C        0.6732354372   -1.7131328258   -0.2644712078
C        0.4341841853   -1.2601315549    2.6584195509
C       -0.3269766724   -2.5187757398    0.5779980055
C        0.1176884066   -2.6381463217    2.0413760707
N       -0.4605851832   -4.2111067811    3.6515100999
O        2.3554716600   -3.6011501389    1.7152416028
O       -0.9644586178   -3.2409815956    2.8009569585
H        3.4133274729   -8.4409473134    5.8623575039
H        1.0323478513   -7.9741640470    6.4245872059
H        4.5576905055   -7.0910874000    4.1138157766
H       -0.1913994647   -6.1677343730    5.2419230237
H        3.3338544059   -5.2831811283    2.9360459923
H        1.7016886110    0.1959000981   -0.2391024939
H        0.0388237627    0.2676387884    0.3373214955
H        2.4121128631   -0.9820501197    1.8214835668
H        1.5898252343    0.5129645682    2.2568572092
H        0.2708933172   -1.5984969517   -1.2771658028
H        1.6097508204   -2.2728469683   -0.3514351423
H        0.7930528316   -1.3911319826    3.6848441583
H       -0.5168174673   -0.7183557125    2.7160941786
H       -1.3037133066   -2.0198562545    0.5810026970
H       -0.4790701062   -3.5194246571    0.1604695689
32   
torsion grid (0,)
C        2.8328102855   -7.7659637179    5.2181912555
C        1.4847585062   -7.5201954689    5.5138481603
C        3.5101964154   -6.9268475234    4.3302796220
C        0.8221378099   -6.4455089441    4.9266026763
C        2.8527833327   -5.8455471574    3.7361350668
C        1.5007040497   -5.5958062922    4.0303682789
C        0.7968207930   -4.4621091626    3.4131392628
C        1.3361392260   -3.4674123824    2.4480246424
C        0.9071934957   -0.4033657677    0.2427488242
C        1.3944293774   -0.3626812637    1.6975946984
C        0.6874578799   -1.8471209495   -0.2294307410
C        0.4244982500   -1.0999327890    2.6314857039
C       -0.2853720057   -2.5947237389    0.6932691211
C        0.1647806024   -2.5426891983    2.1639988435
N       -0.4533233726   -4.2073736971    3.6746046811
O        2.4609734183   -3.3897803571    1.9759142747
O       -0.8989495965   -3.0998887698    2.9835173221
H        3.3476213484   -8.6056395141    5.6779748100
H        0.9523395176   -8.1696852265    6.2038270349
H        4.5554150832   -7.1118142442    4.0966229383
H       -0.2216188878   -6.2528214419    5.1535598320
H        3.3801658143   -5.1960941051    3.0474794353
H        1.6321696968    0.0969358527   -0.4087098821
H       -0.0347802593    0.1563177674    0.1572162901
H        2.3868516237   -0.8201597280    1.7632456644
H        1.4947812711    0.6736434699    2.0390795912
H        0.2867312155   -1.8594873642   -1.2492072786
H        1.6472321782   -2.3730942852   -0.2549609322
H        0.7941309844   -1.1107711617    3.6622853385
H       -0.5471307306   -0.5921184633    2.6434414492
H       -1.2780533579   -2.1312654212    0.6502340431
H       -0.4045090547   -3.6386393215    0.3844943234
32   
torsion grid (15,)
C        2.7689865075   -7.8540120916    5.0825732810
C        1.4193799488   -7.6109424282    5.3734343338
C        3.4763665725   -6.9558980266    4.2797375615
C        0.7846371655   -6.4805245817    4.8654213455
C        2.8463173028   -5.8198250458    3.7634628828
C        1.4920292855   -5.5736966188    4.0511452531
C        0.8163586107   -4.3830996717    3.5165419497
C        1.3950734551   -3.3112924560    2.6570481430
C        0.8797855215   -0.4910209755    0.1617249666
C        1.3434721767   -0.2721207986    1.6082307521
C        0.7272292373   -1.9855687421   -0.1525401492
C        0.4001199591   -0.9522874284    2.6116756301
C       -0.2329756551   -2.6637667839    0.8334458653
C        0.2009554874   -2.4402301335    2.2967600313
N       -0.4595248860   -4.1840558956    3.6848728950
O        2.5471485374   -3.1752066619    2.2743136499
O       -0.8416981015   -2.9580726730    3.1663596926
H        3.2625608517   -8.7361625952    5.4821932402
H        0.8648378761   -8.3047844260    5.9998587406
H        4.5235444030   -7.1374793007    4.0523277891
H       -0.2592783065   -6.2874927059    5.0914567476
H        3.3974818694   -5.1234272420    3.1426178221
H        1.5927625201   -0.0328698645   -0.5326078010
H       -0.0838263336    0.0137571995    0.0052991855
H        2.3549975594   -0.6716066412    1.7312449996
H        1.3896676323    0.7985444144    1.8365124727
H        0.3473674882   -2.1267896034   -1.1706019893
H        1.7080851491   -2.4708219798   -0.1072398253
H        0.7688606354   -0.8428268287    3.6367569540
H       -0.5903711150   -0.4827230252    2.5744520077
H       -1.2381383873   -2.2374815131    0.7375365840
H       -0.3182185933   -3.7375821727    0.6355833290
32   
torsion grid (30,)
C        2.7285395071   -7.8872100927    4.9770258104
C        1.3754966378   -7.6529463597    5.2590205527
C        3.4563436464   -6.9495501317    4.2397521131
C        0.7573024187   -6.4903188042    4.8064703983
C        2.8426842812   -5.7822659250    3.7772823803
C        1.4842055872   -5.5455002899    4.0543747877
C        0.8230805810   -4.3231336272    3.5839754941
C        1.4255913795   -3.1963781884    2.7901808855
C        0.8676942349   -0.5506351651    0.1020717837
C        1.3210771944   -0.2240505433    1.5314096017
C        0.7417611693   -2.0659913245   -0.1068643969
C        0.3911675303   -0.8546486861    2.5797511920
C       -0.2136003873   -2.6872725452    0.9201082053
C        0.2161759951   -2.3598534535    2.3637026098
N       -0.4672972494   -4.1656936269    3.6297873217
O        2.5928063456   -3.0266970996    2.4818803857
O       -0.7909766540   -2.8484677628    3.2860476786
H        3.2103993395   -8.7933654085    5.3350614718
H        0.8071203596   -8.3768701766    5.8370652813
H        4.5065991867   -7.1251291525    4.0222684922
H       -0.2879617881   -6.2992320770    5.0283484113
H        3.4091737374   -5.0544310585    3.2082831302
H        1.5755632045   -0.1290979080   -0.6202084217
H       -0.1041377132   -0.0758872043   -0.0925467249
H        2.3402711767   -0.5928605484    1.6834531967
H        1.3444491513    0.8604552752    1.6857821923
H        0.3730475307   -2.2856840529   -1.1150448559
H        1.7308159538   -2.5301939824   -0.0218637610
H        0.7617125650   -0.6714692983    3.5934552745
H       -0.6068211815   -0.4033565617    2.5161122688
H       -1.2224769255   -2.2768696932    0.7971793119
H       -0.2892000021   -3.7722335300    0.7930600141
32   
torsion grid (45,)
C        2.7093937792   -7.9153151894    4.8990132758
C        1.3424619582   -7.7067447321    5.1299070222
C        3.4643370318   -6.9270418292    4.2611696774
C        0.7374974994   -6.5197807237    4.7259118300
C        2.8642403231   -5.7356892835    3.8459517926
C        1.4911948759   -5.5248720247    4.0702274154
C        0.8399753670   -4.2787670990    3.6599552755
C        1.4655941041   -3.1107202969    2.9059739912
C        0.8447848820   -0.6124353393    0.0664644594
C        1.3155925028   -0.2110417128    1.4706081970
C        0.7267667907   -2.1371502594   -0.0621019726
C        0.4065388875   -0.7966643202    2.5627045604
C       -0.2089928691   -2.7121504707    1.0097166703
C        0.2392615691   -2.3107232367    2.4252292017
N       -0.4522016760   -4.1558986853    3.5812329042
O        2.6396672751   -2.9213381120    2.6533890854
O       -0.7131106976   -2.7618980263    3.4207251293
H        3.1811420836   -8.8402268629    5.2207589388
H        0.7536661817   -8.4693796499    5.6326985619
H        4.5253088225   -7.0829335751    4.0849551828
H       -0.3175001048   -6.3452171545    4.9129131446
H        3.4508327387   -4.9703022002    3.3514505895
H        1.5386657994   -0.2230317414   -0.6868947461
H       -0.1336750533   -0.1556905935   -0.1376042929
H        2.3400942794   -0.5641258826    1.6262292285
H        1.3332514311    0.8800222279    1.5696124007
H        0.3473419239   -2.4108997559   -1.0528753850
H        1.7209814435   -2.5898046487    0.0322485810
H        0.7911291518   -0.5604445104    3.5599955752
H       -0.5956604949   -0.3556167682    2.4922408401
H       -1.2226271961   -2.3145010124    0.8813424578
H       -0.2798335788   -3.8016910503    0.9340558930
32   
torsion grid (60,)
C        2.7038510569   -7.9386182530    4.8439401919
C        1.3254374267   -7.7576681662    5.0232292519
C        3.4784849225   -6.9119221149    4.2949691065
C        0.7272962027   -6.5559685515    4.6542819922
C        2.8867406062   -5.7057487471    3.9147137448
C        1.5011882304   -5.5234641942    4.0850835150
C        0.8499407166   -4.2677058182    3.7190635222
C        1.4958113374   -3.0560956220    2.9865446631
C        0.8139362737   -0.6540269692    0.0352696550
C        1.3120132118   -0.2129060319    1.4177497688
C        0.6839009619   -2.1810306123   -0.0417901126
C        0.4190572418   -0.7618228222    2.5417450390
C       -0.2339505736   -2.7194944611    1.0651295227
C        0.2456897576   -2.2778999523    2.4517307950
N       -0.4258872034   -4.1616648917    3.4988517798
O        2.6735023528   -2.8409169567    2.8056272558
O       -0.6167645957   -2.7123502562    3.5251920427
H        3.1712780481   -8.8745908457    5.1388300819
H        0.7241133152   -8.5510349719    5.4590551533
H        4.5479768455   -7.0506726824    4.1615675239
H       -0.3360916558   -6.3961347604    4.8044797152
H        3.4859036346   -4.9099384335    3.4874903399
H        1.4959232986   -0.2929546710   -0.7428226011
H       -0.1655166817   -0.1978236028   -0.1650477534
H        2.3374327876   -0.5672018453    1.5665019793
H        1.3380680284    0.8804964736    1.4835440409
H        0.2873063689   -2.4840984493   -1.0171042675
H        1.6778045166   -2.6365782097    0.0495289790
H        0.8208589815   -0.4967246816    3.5248544688
H       -0.5826108776   -0.3189083523    2.4738896712
H       -1.2487266490   -2.3212755918    0.9425914276
H       -0.3119374697   -3.8093692881    1.0182280551
32   
torsion grid (75,)
C        2.7000233875   -7.9620170506    4.8449950517
C        1.3101686179   -7.8066891679    4.9379074430
C        3.4953687557   -6.9031013672    4.3937326031
C        0.7184612941   -6.5980217486    4.5801878652
C        2.9104898464   -5.6905218365    4.0260214286
C        1.5131253238   -5.5334306139    4.1067271709
C        0.8703638972   -4.2729965120    3.7548085387
C        1.5470481236   -3.0326597727    3.0079553006
C        0.7757848180   -0.6566908070    0.0053450884
C        1.3225529363   -0.2128778921    1.3682407613
C        0.6108300405   -2.1809274231   -0.0498062944
C        0.4489175501   -0.7340755140    2.5201305533
C       -0.2833284259   -2.6950760128    1.0893661783
C        0.2514739707   -2.2462458467    2.4466480379
N       -0.3715902291   -4.1570512072    3.3877812328
O        2.7227424413   -2.7960945108    2.8865490564
O       -0.4820808513   -2.6881959553    3.5950271545
H        3.1609302987   -8.9037190625    5.1318141389
H        0.6941609326   -8.6259475737    5.2988005083
H        4.5734090890   -7.0229563063    4.3279063287
H       -0.3546662353   -6.4562675760    4.6674621108
H        3.5229780075   -4.8687887218    3.6722045792
H        1.4422774855   -0.3191500414   -0.7964592840
H       -0.1990553776   -0.1813633810   -0.1715733143
H        2.3438844858   -0.5883556809    1.4929816336
H        1.3745815414    0.8801868190    1.4226693388
H        0.1804174242   -2.4865151806   -1.0097786989
H        1.5976229516   -2.6563899731    0.0178407999
H        0.8797879872   -0.4665615318    3.4901077587
H       -0.5464569811   -0.2739033812    2.4719857529
H       -1.2955024417   -2.2819370422    0.9908240782
H       -0.3803454812   -3.7823772116    1.0494936257
