13   
torsion grid (-165,)
C        0.2950887553   -0.6828663758    2.6036244596
C        2.4555932574    0.3700978946    2.2066942536
C        3.0994088316    1.5734504600    1.5300349677
N        1.0790403929    0.2178143989    1.7561808649
Cl       3.2425020431    1.3047229849   -0.2547681083
Cl       4.7195929420    1.9008508604    2.2486880584
H        0.1870291443   -0.2432039193    3.6007880567
H        0.7349350691   -1.6882305158    2.7204529709
H       -0.7066737781   -0.7924775768    2.1786083213
H        3.0924761921   -0.5163283384    2.0531127021
H        2.4426039942    0.5810195275    3.2815641427
H        2.4975732560    2.4707031507    1.6546125226
H        1.0723685901   -0.1155398696    0.7951491068
13   
torsion grid (-150,)
C        0.2744685557   -0.6232062915    2.6238600691
C        2.4991626239    0.2939402714    2.1496244652
C        3.0714002121    1.5856259703    1.5740024130
N        1.1315131871    0.1049821704    1.6880741756
Cl       3.2233519771    1.4691555003   -0.2242845323
Cl       4.6740706682    1.9466941067    2.3215219141
H        0.1594985729   -0.0387633155    3.5426940935
H        0.6496908753   -1.6234464455    2.9003271049
H       -0.7186536093   -0.7405077708    2.1805332510
H        3.1833489264   -0.5383481007    1.9253742395
H        2.4841029548    0.4169800056    3.2374888616
H        2.4190107817    2.4329420597    1.7716200651
H        1.1258965743   -0.3342347824    0.7722988802
13   
torsion grid (-135,)
C        0.2691436200   -0.5558236542    2.6396873468
C        2.5458100395    0.2201701953    2.0919742012
C        3.0324058578    1.5837815284    1.6023054773
N        1.1849766539   -0.0191537544    1.6350592129
Cl       3.1855178386    1.5950575275   -0.1973064166
Cl       4.6113495847    1.9992696882    2.3765560848
H        0.1604987866    0.1646748309    3.4570865984
H        0.5830332743   -1.5201904141    3.0745415827
H       -0.7180309265   -0.6894996757    2.1874524917
H        3.2681214751   -0.5480556132    1.7850392531
H        2.5590636902    0.2552540570    3.1862073829
H        2.3275331714    2.3724948666    1.8553391755
H        1.1758020758   -0.5731469581    0.7857965981
13   
torsion grid (-120,)
C        0.2708817872   -0.4705468049    2.6255028469
C        2.5860453567    0.1617027706    2.0476958219
C        2.9908151749    1.5905338085    1.6749014943
N        1.2346719081   -0.1177043208    1.5856421155
Cl       3.1455068026    1.7654898541   -0.1129400378
Cl       4.5409897065    2.0318810012    2.4956768754
H        0.1588184955    0.3669859568    3.3222157106
H        0.5427079547   -1.3655247479    3.2108788416
H       -0.7062512989   -0.6439282466    2.1650445780
H        3.3315325581   -0.5283258918    1.6367289787
H        2.6441372403    0.0841070131    3.1395935647
H        2.2426090875    2.3143778101    1.9908888600
H        1.2332329376   -0.7918050402    0.8294591791
13   
torsion grid (-105,)
C        0.2848308668   -0.3774163413    2.6022084237
C        2.6191374853    0.0893656535    1.9830450832
C        2.9406270399    1.5638051787    1.7167286930
N        1.2714949847   -0.2271299393    1.5342312953
Cl       3.0511807266    1.8949121374   -0.0490510444
Cl       4.4810456445    2.0175227777    2.5507075534
H        0.1705024055    0.5718896225    3.1367591699
H        0.5409905153   -1.1537565003    3.3433359828
H       -0.6871191561   -0.6219967934    2.1640668966
H        3.3670222511   -0.5197565971    1.4670329440
H        2.7449215854   -0.0846186693    3.0609168676
H        2.1672310324    2.2236735976    2.1048951582
H        1.2726338059   -1.0339971251    0.9214501230
13   
torsion grid (-90,)
C        0.3021981136   -0.2867594319    2.5511294876
C        2.6564485110    0.0315241501    1.9428135655
C        2.8937496385    1.5385572767    1.7965780257
N        1.3189193225   -0.3287302281    1.5010477778
Cl       2.9192082112    2.0351464479    0.0685706295
Cl       4.4414900660    1.9892618306    2.6175277441
H        0.1687470136    0.7421102464    2.9021392828
H        0.5411009229   -0.9136463414    3.4276705633
H       -0.6566693257   -0.6132946277    2.1389224117
H        3.4066091356   -0.4869041064    1.3399379926
H        2.8422541817   -0.2267505087    2.9981479941
H        2.1123912444    2.1276588801    2.2722031008
H        1.3303287695   -1.2368536210    1.0500730313
13   
torsion grid (-75,)
C        0.3131540451   -0.2041394067    2.4788156649
C        2.6977932482   -0.0089934831    1.9271720608
C        2.8580788505    1.5133140685    1.8945229541
N        1.3738401381   -0.4267437432    1.4971508163
Cl       2.6617205819    2.1700557856    0.2338359005
Cl       4.4758865265    1.9498055575    2.5751433166
H        0.1003415826    0.8658819332    2.5710565815
H        0.5490240710   -0.5936958617    3.4850467188
H       -0.6052700416   -0.6826450051    2.1282421710
H        3.4481256808   -0.4425688512    1.2607812312
H        2.9395045280   -0.3237020974    2.9582584784
H        2.1269835865    2.0263163535    2.5150099097
H        1.4031385583   -1.4028048221    1.2211968390
13   
torsion grid (-60,)
C        0.3210203860   -0.1227074902    2.4011953007
C        2.7322235073   -0.0540301098    1.9022707223
C        2.8261342744    1.4696250180    1.9745233245
N        1.4101071183   -0.5183690574    1.5090528425
Cl       2.4108018038    2.2462453605    0.4067373097
Cl       4.4935347717    1.9270106247    2.5014086954
H        0.0862743060    0.9374692591    2.2629018800
H        0.5324115896   -0.2948680249    3.4722050749
H       -0.5775787326   -0.6857150214    2.1353102534
H        3.4667842417   -0.4129784839    1.1761122848
H        3.0401850750   -0.4123041534    2.9021193064
H        2.1556546565    1.8985268041    2.7149778283
H        1.4370610294   -1.5278632985    1.4040299626
13   
torsion grid (-45,)
C        0.3251246104   -0.0648514080    2.3467477071
C        2.7628634763   -0.0838175215    1.8589921811
C        2.8061601366    1.4313277436    2.0276425351
N        1.4311518980   -0.5979399318    1.5534576951
Cl       2.2723181492    2.2916904802    0.5363076092
Cl       4.4849238573    1.9220949124    2.4798164818
H        0.1108879415    0.9661642374    2.0509132035
H        0.4911184631   -0.0884986495    3.4396616236
H       -0.5715528753   -0.6521452521    2.1310579652
H        3.4527378042   -0.3693703235    1.0593962130
H        3.1668126836   -0.4802108508    2.8084607398
H        2.1667368550    1.7866134865    2.8311807411
H        1.4539416819   -1.6115950774    1.5995337899
13   
torsion grid (-30,)
C        0.3144796869   -0.0346872116    2.3006816191
C        2.7817437255   -0.0973096035    1.8059900456
C        2.8011121300    1.4046262024    2.0608098228
N        1.4429567303   -0.6656720747    1.6186525551
Cl       2.2089524432    2.3368722708    0.6309843392
Cl       4.4835811706    1.9103775796    2.4796513415
H        0.1174437645    0.9525378818    1.8757453706
H        0.4289043631    0.0711815317    3.3953907799
H       -0.5751930906   -0.6444107451    2.1195688718
H        3.4003251774   -0.3104633324    0.9281881047
H        3.2927280038   -0.5299221337    2.6824928036
H        2.1796352108    1.7036559627    2.9002574228
H        1.4780824182   -1.6584221010    1.8237458355
13   
torsion grid (-15,)
C        0.2938862319   -0.0268711584    2.2473157431
C        2.7884657736   -0.1013071987    1.7602078665
C        2.8103689105    1.3858941705    2.0969918489
N        1.4545176278   -0.7223960087    1.6903856058
Cl       2.1717628425    2.3931758105    0.7375969046
Cl       4.5052057592    1.8832927976    2.4791035849
H        0.0926584005    0.8895756894    1.6892316608
H        0.3654145651    0.2271514133    3.3204947152
H       -0.5766431473   -0.6775634169    2.1229956223
H        3.3201647997   -0.2389448577    0.8119485729
H        3.3955320596   -0.5769934203    2.5432180237
H        2.2164507467    1.6386981953    2.9710924387
H        1.5143554840   -1.6576835443    2.0772953598
13   
torsion grid (0,)
C        0.3385411260   -0.0068146753    2.1658783814
C        2.8457514239   -0.0736687334    1.6753293500
C        2.8962409149    1.4031161423    2.0708910085
N        1.5315386406   -0.7440884696    1.7389589461
Cl       2.1502050149    2.4667449316    0.8155076389
Cl       4.6201821715    1.8882488862    2.3277530657
H        0.0752288430    0.7571916646    1.4323290369
H        0.4101767922    0.4759212715    3.1556177333
H       -0.4912973515   -0.7183356161    2.2083155255
H        3.2601079118   -0.1463322734    0.6627032953
H        3.5459137029   -0.5874574710    2.3426089592
H        2.3803394478    1.6207525313    3.0026074022
H        1.6285518467   -1.5651219886    2.3263381094
13   
torsion grid (15,)
C        0.0727284384    1.3638057951    2.0126653966
C        2.3715965619    0.2698535112    2.1806606822
C        3.1050226769    1.5576958437    1.7923090525
N        0.9286692273    0.2439317021    2.4332103103
Cl       2.9981750086    2.8245176010    3.0843489668
Cl       2.6146658268    2.2181068968    0.1860912465
H       -0.0092719679    1.3916100623    0.9234128360
H        0.3988034510    2.3523094813    2.3584749885
H       -0.9278807744    1.1716833255    2.4115647768
H        2.6047898401   -0.4190676256    1.3546817111
H        2.8898843218   -0.1183432176    3.0631615950
H        4.1666341685    1.3375561078    1.6931083760
H        0.7970333322    0.1269026908    3.4330357958
13   
torsion grid (30,)
C        0.0478031387    1.3304098923    1.9939766620
C        2.3355585407    0.2707541973    2.1612296813
C        3.0928336301    1.5667055937    1.8250686515
N        0.9263255332    0.2839934121    2.5349668386
Cl       2.9913301332    2.7655111881    3.1782518968
Cl       2.6039103423    2.3098319609    0.2542133666
H       -0.0397480032    1.2222646075    0.9093950640
H        0.3665882802    2.3574716897    2.2112248413
H       -0.9473525484    1.1783564883    2.4228485125
H        2.4678136738   -0.3585318640    1.2692569144
H        2.8936001883   -0.2105700741    2.9702900473
H        4.1523943114    1.3428907591    1.7111318608
H        0.8739837633    0.3376182938    3.5486395000
13   
torsion grid (45,)
C        0.0419906139    1.2778098628    1.9641385710
C        2.3231726189    0.2659895333    2.1405224478
C        3.1252662452    1.5553974577    1.8627955100
N        0.9541068076    0.3305992185    2.6166225336
Cl       3.0306769459    2.6941310720    3.2640413548
Cl       2.6600758409    2.3782207546    0.3228359666
H       -0.0289788289    1.0431052809    0.8978347168
H        0.3292875258    2.3325949473    2.0621901710
H       -0.9522054686    1.1458121057    2.4019676295
H        2.3539648005   -0.3027949355    1.2018238518
H        2.9031747609   -0.3004683444    2.8767306803
H        4.1811929449    1.3158836710    1.7462552097
H        0.9672004087    0.5310355278    3.6136685211
13   
torsion grid (60,)
C       -0.0020517735    1.2179350277    1.9292717196
C        2.2976082160    0.2868187844    2.1197772036
C        3.1633246808    1.5465544938    1.8866552425
N        0.9698251118    0.4132649117    2.6758577998
Cl       3.1556070969    2.6098982259    3.3469429763
Cl       2.6879173251    2.4767218535    0.4102973811
H       -0.0535502307    0.8552814288    0.8978748973
H        0.2190340783    2.2933032536    1.8980392096
H       -0.9883957287    1.0781782151    2.3828308247
H        2.2390194298   -0.2304579665    1.1547322290
H        2.8811807907   -0.3505286197    2.7945125811
H        4.2034814551    1.2670366932    1.7251420709
H        1.0312445569    0.7463572163    3.6345201670
13   
torsion grid (75,)
C       -0.0610267480    1.1503971616    1.8948128744
C        2.2828483312    0.3363487818    2.1208748759
C        3.2209629854    1.5455646731    1.9253451188
N        0.9828863695    0.5325651357    2.7166297661
Cl       3.3973970547    2.4699148618    3.4687312381
Cl       2.6954491149    2.6394803062    0.5848323445
H       -0.1082820930    0.6332333688    0.9311694256
H        0.0782110953    2.2215115224    1.6955475602
H       -1.0257856124    1.0113485680    2.3933067713
H        2.1637316258   -0.1407744787    1.1420919952
H        2.8482274071   -0.3599608277    2.7544258674
H        4.2238240907    1.2145461345    1.6581744461
H        1.0677441158    0.9969202973    3.6164853208
13   
torsion grid (90,)
C       -0.1222188903    1.0657249396    1.8656736836
C        2.2638325280    0.3883494282    2.0976965436
C        3.2612265765    1.5482462468    1.9460559824
N        0.9888188376    0.6536161372    2.7254562145
Cl       3.6217203492    2.2890349578    3.5577431843
Cl       2.6907054328    2.8124455765    0.7877543844
H       -0.2507111554    0.3250045189    1.0694945387
H       -0.0097806501    2.0538244984    1.3979318143
H       -1.0409893340    1.0660319894    2.4606385229
H        2.0958256693   -0.0323362572    1.1011310279
H        2.8043047778   -0.3706474715    2.6814629559
H        4.2165966624    1.1936194354    1.5611275843
H        1.0934709972    1.2594865515    3.5338465733
13   
torsion grid (105,)
C       -0.1386310411    0.9735147469    1.8501428723
C        2.2702055521    0.4370223861    2.0522912550
C        3.3158302298    1.5513415896    1.9724451133
N        1.0211865597    0.7630186783    2.7169375303
Cl       3.7876182145    2.1075957188    3.6295166218
Cl       2.7356943647    2.9518837292    0.9875219407
H       -0.3589549783    0.0480343891    1.3074560212
H       -0.0232333191    1.7860583849    1.1162192831
H       -1.0078229195    1.1958992737    2.4764426543
H        2.0696533741    0.1058519208    1.0281791127
H        2.7723394527   -0.3953860087    2.5674255421
H        4.2337623033    1.2020861279    1.5020829860
H        1.1415094293    1.5195710810    3.3830362965
13   
torsion grid (120,)
C        0.4432252690   -0.8676004468    2.3299215069
C        2.3317697272    0.6902054446    2.5804559118
C        3.1395842406    1.2929640429    1.4359177156
N        0.9134217321    0.5186629624    2.2576683226
Cl       3.1292635970    0.2124074250   -0.0176986864
Cl       4.8271664984    1.6280963786    1.9734559847
H        0.5141071594   -1.2224904656    3.3631651154
H        1.0024568509   -1.5647998943    1.6851496460
H       -0.6123705467   -0.8996026291    2.0442547836
H        2.7907241432   -0.2655616142    2.8550387750
H        2.4526807825    1.3674513340    3.4361828444
H        2.7316864242    2.2457035941    1.1000492785
H        0.7061852681    0.8970918261    1.3378315022
13   
torsion grid (135,)
C        0.3983296787   -0.8486672217    2.4111096738
C        2.3514075305    0.6196770816    2.5077648704
C        3.1563741234    1.3410940966    1.4349675091
N        0.9331150620    0.4926405514    2.1514975144
Cl       3.1692313780    0.4030885852   -0.1160562407
Cl       4.8353653585    1.6342909058    2.0122876857
H        0.4059178100   -1.0448391776    3.4884178316
H        0.9621394848   -1.6538318221    1.9114751301
H       -0.6422740969   -0.8889333211    2.0762803027
H        2.8233733928   -0.3585346899    2.6730321363
H        2.4587001997    1.1969838859    3.4342838443
H        2.7373998129    2.3158573155    1.1887259697
H        0.8162964675    0.6853577368    1.1596788399
13   
torsion grid (150,)
C        0.3691767981   -0.8252628408    2.4790512175
C        2.3465409787    0.5903814661    2.4641327118
C        3.1268229787    1.4691635438    1.4962384407
N        0.9420532938    0.4615335728    2.0671970605
Cl       3.2068351340    0.7166644956   -0.1508333648
Cl       4.7821800695    1.7687219891    2.1331030817
H        0.3284764718   -0.8779240697    3.5723879784
H        0.9396517606   -1.6969761217    2.1168590347
H       -0.6565521659   -0.8961789372    2.1061753543
H        2.8656046447   -0.3798828786    2.5203296488
H        2.4084308677    1.0549217815    3.4551072745
H        2.6609569368    2.4431567304    1.3560513858
H        0.8886693358    0.5027215201    1.0511666395
13   
torsion grid (165,)
C        0.3356825107   -0.7889334283    2.5317360583
C        2.3627121475    0.5324435255    2.3935700158
C        3.1143781489    1.5342895842    1.5282392842
N        0.9732923391    0.4021324255    1.9604345898
Cl       3.2439527507    0.9476002298   -0.1815859322
Cl       4.7499441549    1.8372328586    2.2135548085
H        0.2545045251   -0.6780840585    3.6185415447
H        0.8833917192   -1.7242833115    2.3257959091
H       -0.6777180213   -0.8806730818    2.1310469901
H        2.9211229331   -0.4191608401    2.3752471014
H        2.3824367411    0.9059997783    3.4236461706
H        2.6044283803    2.4943551283    1.4776273840
H        0.9636668755    0.3019388696    0.9465649528
13   
torsion grid (180,)
C        0.3068393099   -0.7403455992    2.5737636616
C        2.4042037948    0.4429364865    2.2913265121
C        3.1116165953    1.5476118851    1.5188221577
N        1.0202698184    0.3158278452    1.8502623129
Cl       3.2448041809    1.1237237197   -0.2375084591
Cl       4.7437635873    1.8466650244    2.2176690767
H        0.2073950902   -0.4596720862    3.6278349760
H        0.8043070211   -1.7243725572    2.5294180769
H       -0.7004147811   -0.8412702715    2.1600608452
H        2.9946029460   -0.4849880668    2.2022147050
H        2.4063648381    0.7337400758    3.3478064983
H        2.5621700028    2.4855178159    1.5619272611
H        1.0146276781    0.0936410032    0.8564005487
