
  -OEChem-12122420533D

 20 20  0     0  0  0  0  0  0999 V2000
    0.8217    0.3450    3.1404 C   0  0  0  0  0  0  0  0  0  0  0  0
    1.7725    1.2761    3.5714 C   0  0  0  0  0  0  0  0  0  0  0  0
   -0.2802    0.7846    2.4013 C   0  0  0  0  0  0  0  0  0  0  0  0
    1.6380    2.6301    3.2609 C   0  0  0  0  0  0  0  0  0  0  0  0
   -0.4347    2.1405    2.1043 C   0  0  0  0  0  0  0  0  0  0  0  0
    0.5283    3.0685    2.5252 C   0  0  0  0  0  0  0  0  0  0  0  0
    2.1909    6.3736    2.7646 C   0  0  0  0  0  0  0  0  0  0  0  0
    0.3812    4.4321    2.1388 N   0  0  0  0  0  0  0  0  0  0  0  0
   -0.4374    6.7107    2.8212 O   0  0  0  0  0  0  0  0  0  0  0  0
    0.6662    5.2395    4.6048 O   0  0  0  0  0  0  0  0  0  0  0  0
    0.5742    5.7326    3.2318 S   0  0  0  0  0  0  0  0  0  0  0  0
    0.9366   -0.7081    3.3806 H   0  0  0  0  0  0  0  0  0  0  0  0
    2.6313    0.9482    4.1509 H   0  0  0  0  0  0  0  0  0  0  0  0
   -1.0312    0.0752    2.0640 H   0  0  0  0  0  0  0  0  0  0  0  0
    2.3844    3.3368    3.6073 H   0  0  0  0  0  0  0  0  0  0  0  0
   -1.3037    2.4793    1.5440 H   0  0  0  0  0  0  0  0  0  0  0  0
    2.3905    7.2247    3.4178 H   0  0  0  0  0  0  0  0  0  0  0  0
    2.9365    5.5924    2.9146 H   0  0  0  0  0  0  0  0  0  0  0  0
    2.1480    6.6834    1.7206 H   0  0  0  0  0  0  0  0  0  0  0  0
   -0.4556    4.6196    1.5901 H   0  0  0  0  0  0  0  0  0  0  0  0
  1  2  1  0  0  0  0
  1  3  2  0  0  0  0
  1 12  1  0  0  0  0
  2  4  2  0  0  0  0
  2 13  1  0  0  0  0
  3  5  1  0  0  0  0
  3 14  1  0  0  0  0
  4  6  1  0  0  0  0
  4 15  1  0  0  0  0
  5  6  2  0  0  0  0
  5 16  1  0  0  0  0
  6  8  1  0  0  0  0
  7 11  1  0  0  0  0
  7 17  1  0  0  0  0
  7 18  1  0  0  0  0
  7 19  1  0  0  0  0
  8 11  1  0  0  0  0
  8 20  1  0  0  0  0
  9 11  2  0  0  0  0
 10 11  2  0  0  0  0
M  END
$$$$
