17
0 1 C7ClH7OS
C                     1.830284946271    -1.444736357941     0.934378800300
C                     1.054562443284    -0.310783754370     1.195710542157
C                     2.400118360485    -2.158009906865     1.991830556445
C                     0.841948385306     0.113947062010     2.510891909721
C                     2.202806461699    -1.730002705661     3.305055354774
C                     1.416067960299    -0.605059016011     3.560403218943
C                     4.354207283876    -1.637453278713     4.975265867017
O                     3.545259770580    -3.962787479686     3.919570397115
S                     2.943044097807    -2.763744052453     4.627346757923
Cl                    1.135865214056    -0.070117874868     5.214547826401
H                     1.985569707405    -1.776712516575    -0.088280766061
H                     0.604337705139     0.245518789072     0.378230215676
H                     2.992785533210    -3.056081842865     1.832991788247
H                     0.235564944572     0.988473660196     2.725256353617
H                     4.958479572128    -2.130328234217     5.740248575635
H                     3.990705885051    -0.674635558468     5.339035833860
H                     4.928318868293    -1.524265617750     4.053427344211
