
  -OEChem-12102412493D

 17 17  0     1  0  0  0  0  0999 V2000
    1.9190   -0.8976   -0.1647 C   0  0  0  0  0  0  0  0  0  0  0  0
    0.8041   -0.4104    0.5225 C   0  0  0  0  0  0  0  0  0  0  0  0
    2.9384   -1.5344    0.5465 C   0  0  0  0  0  0  0  0  0  0  0  0
    0.7072   -0.5662    1.9075 C   0  0  0  0  0  0  0  0  0  0  0  0
    2.8476   -1.7089    1.9325 C   0  0  0  0  0  0  0  0  0  0  0  0
    1.7249   -1.2166    2.6116 C   0  0  0  0  0  0  0  0  0  0  0  0
    3.4741   -4.1065    3.1146 C   0  0  0  0  0  0  0  0  0  0  0  0
    4.6743   -1.8517    3.9970 O   0  0  0  0  0  0  0  0  0  0  0  0
    4.3065   -2.5209    2.6937 S   0  0  2  0  0  0  0  0  0  0  0  0
    1.5357   -1.4009    4.3418 Cl  0  0  0  0  0  0  0  0  0  0  0  0
    2.0023   -0.7721   -1.2404 H   0  0  0  0  0  0  0  0  0  0  0  0
    0.0073    0.0975   -0.0138 H   0  0  0  0  0  0  0  0  0  0  0  0
    3.8240   -1.8940    0.0269 H   0  0  0  0  0  0  0  0  0  0  0  0
   -0.1553   -0.1900    2.4490 H   0  0  0  0  0  0  0  0  0  0  0  0
    4.2411   -4.7431    3.5619 H   0  0  0  0  0  0  0  0  0  0  0  0
    3.0852   -4.5625    2.2006 H   0  0  0  0  0  0  0  0  0  0  0  0
    2.6757   -3.9211    3.8339 H   0  0  0  0  0  0  0  0  0  0  0  0
  1  2  1  0  0  0  0
  1  3  2  0  0  0  0
  1 11  1  0  0  0  0
  2  4  2  0  0  0  0
  2 12  1  0  0  0  0
  3  5  1  0  0  0  0
  3 13  1  0  0  0  0
  4  6  1  0  0  0  0
  4 14  1  0  0  0  0
  5  6  2  0  0  0  0
  5  9  1  0  0  0  0
  6 10  1  0  0  0  0
  7  9  1  0  0  0  0
  7 15  1  0  0  0  0
  7 16  1  0  0  0  0
  7 17  1  0  0  0  0
  8  9  2  0  0  0  0
M  END
$$$$
