15
0 1 C5FH7O2
C                    -3.047465864190     2.515792678078    -3.186678126991
C                    -3.043037931545     0.037207560954    -3.911209825820
C                    -1.730208883686     0.634184548679    -4.365799942572
C                    -2.413758511644     1.162156722296    -3.128396088914
C                    -3.540627564949     4.502960257237    -2.028442607826
O                    -3.592805676196     2.942256131773    -4.190483569719
O                    -2.944099472960     3.186586140117    -2.028551930546
F                    -1.844387878776     0.833779863004    -1.917371883252
H                    -3.940682228858     0.272532412534    -4.472678255402
H                    -3.013469641597    -0.934339789356    -3.428592901752
H                    -0.827298304733     0.060622535963    -4.182698981359
H                    -1.727647157976     1.277808454606    -5.238737580347
H                    -3.379692313061     4.890315826988    -1.023065789246
H                    -4.607354384695     4.435859925453    -2.252885453954
H                    -3.054207698273     5.138645377857    -2.771637635444
