20
0 1 C7H9NO2S
C                     1.737200124280    -1.033144133268    -0.084342925598
C                     2.584757835645    -1.885214858390     0.632507977689
C                     0.885307308536    -0.167654929321     0.608751715131
C                     2.597323069136    -1.873752255577     2.029113371691
C                     0.867262572032    -0.168014679864     2.005692581025
C                     1.725999009094    -1.017343965404     2.719380211117
C                    -0.073584789947    -3.089781567467     4.396846483766
N                     1.726539076772    -0.979935041937     4.144795822253
O                     2.530536370100    -3.332828797334     4.756566826752
O                     1.204239497641    -1.903322164808     6.414263525654
S                     1.456689317524    -2.388909297058     5.057362345395
H                     1.744538976092    -1.039559105171    -1.170683280607
H                     3.257369645831    -2.554159237668     0.102241857906
H                     0.224256633959     0.501534157374     0.064519381067
H                     3.268184567488    -2.516807634677     2.587803007071
H                     0.190186495894     0.493157583761     2.543200411560
H                    -0.235880127811    -4.034093415602     4.919139352930
H                    -0.889968280241    -2.394225220813     4.595131804031
H                     0.053955172989    -3.261758546364     3.327447715989
H                     1.203478091011    -0.208995094410     4.554212514745
