
  -OEChem-12102412493D

 13 12  0     0  0  0  0  0  0999 V2000
   -4.4885   -0.0198   -0.1805 C   0  0  0  0  0  0  0  0  0  0  0  0
   -0.8928    0.4486    0.4526 C   0  0  0  0  0  0  0  0  0  0  0  0
   -2.1392   -0.2040   -0.1088 C   0  0  0  0  0  0  0  0  0  0  0  0
   -0.6843    1.6954   -0.2153 O   0  0  0  0  0  0  0  0  0  0  0  0
   -3.2880    0.4513    0.4052 O   0  0  0  0  0  0  0  0  0  0  0  0
   -5.3106    0.5340    0.2790 H   0  0  0  0  0  0  0  0  0  0  0  0
   -4.6350   -1.0963    0.0030 H   0  0  0  0  0  0  0  0  0  0  0  0
   -4.5014    0.1543   -1.2673 H   0  0  0  0  0  0  0  0  0  0  0  0
   -0.0386   -0.2266    0.2908 H   0  0  0  0  0  0  0  0  0  0  0  0
   -1.0243    0.5893    1.5342 H   0  0  0  0  0  0  0  0  0  0  0  0
   -2.1505   -1.2705    0.1726 H   0  0  0  0  0  0  0  0  0  0  0  0
   -2.1147   -0.1430   -1.2082 H   0  0  0  0  0  0  0  0  0  0  0  0
   -0.0351    2.2083    0.2884 H   0  0  0  0  0  0  0  0  0  0  0  0
  1  5  1  0  0  0  0
  1  6  1  0  0  0  0
  1  7  1  0  0  0  0
  1  8  1  0  0  0  0
  2  3  1  0  0  0  0
  2  4  1  0  0  0  0
  2  9  1  0  0  0  0
  2 10  1  0  0  0  0
  3  5  1  0  0  0  0
  3 11  1  0  0  0  0
  3 12  1  0  0  0  0
  4 13  1  0  0  0  0
M  END
$$$$
