
  -OEChem-12102412493D

 20 20  0     0  0  0  0  0  0999 V2000
    5.9082   -0.9765    6.0992 C   0  0  0  0  0  0  0  0  0  0  0  0
    5.5769   -0.1777    4.9991 C   0  0  0  0  0  0  0  0  0  0  0  0
    4.9658   -1.8587    6.6393 C   0  0  0  0  0  0  0  0  0  0  0  0
    4.2990   -0.2491    4.4374 C   0  0  0  0  0  0  0  0  0  0  0  0
    3.6837   -1.9418    6.0891 C   0  0  0  0  0  0  0  0  0  0  0  0
    3.3727   -1.1293    4.9981 C   0  0  0  0  0  0  0  0  0  0  0  0
    0.8772    0.1140    5.3431 C   0  0  0  0  0  0  0  0  0  0  0  0
    1.1908   -2.5929    4.7685 N   0  0  0  0  0  0  0  0  0  0  0  0
    1.8997   -0.6419    2.8655 N   0  0  0  0  0  0  0  0  0  0  0  0
    1.7151   -1.1833    4.3252 S   0  0  0  0  0  0  0  0  0  0  0  0
    6.9039   -0.9173    6.5308 H   0  0  0  0  0  0  0  0  0  0  0  0
    6.3144    0.4961    4.5717 H   0  0  0  0  0  0  0  0  0  0  0  0
    5.2293   -2.4889    7.4844 H   0  0  0  0  0  0  0  0  0  0  0  0
    4.0203    0.3373    3.5685 H   0  0  0  0  0  0  0  0  0  0  0  0
    2.9400   -2.6344    6.4683 H   0  0  0  0  0  0  0  0  0  0  0  0
   -0.1607    0.1570    5.0006 H   0  0  0  0  0  0  0  0  0  0  0  0
    0.9169   -0.1790    6.3936 H   0  0  0  0  0  0  0  0  0  0  0  0
    1.3714    1.0720    5.1732 H   0  0  0  0  0  0  0  0  0  0  0  0
    0.2382   -2.7399    4.4270 H   0  0  0  0  0  0  0  0  0  0  0  0
    1.0031   -0.6360    2.3738 H   0  0  0  0  0  0  0  0  0  0  0  0
  1  2  1  0  0  0  0
  1  3  2  0  0  0  0
  1 11  1  0  0  0  0
  2  4  2  0  0  0  0
  2 12  1  0  0  0  0
  3  5  1  0  0  0  0
  3 13  1  0  0  0  0
  4  6  1  0  0  0  0
  4 14  1  0  0  0  0
  5  6  2  0  0  0  0
  5 15  1  0  0  0  0
  6 10  1  0  0  0  0
  7 10  1  0  0  0  0
  7 16  1  0  0  0  0
  7 17  1  0  0  0  0
  7 18  1  0  0  0  0
  8 10  2  0  0  0  0
  8 19  1  0  0  0  0
  9 10  2  0  0  0  0
  9 20  1  0  0  0  0
M  END
$$$$
