20
0 1 C7H10N2S
C                     5.908172152351    -0.976518594488     6.099153932799
C                     5.576901037682    -0.177711090235     4.999073618518
C                     4.965845417270    -1.858688284340     6.639349052213
C                     4.299022805769    -0.249078648836     4.437443842805
C                     3.683713574269    -1.941751416021     6.089137084461
C                     3.372744168659    -1.129310528785     4.998097270689
C                     0.877193439657     0.113978341675     5.343071328685
N                     1.190774234258    -2.592869979407     4.768502016564
N                     1.899743487502    -0.641852543424     2.865468697845
S                     1.715096101143    -1.183319291550     4.325238895673
H                     6.903937662839    -0.917263558274     6.530831803476
H                     6.314366245590     0.496137412384     4.571668462226
H                     5.229311050354    -2.488851604812     7.484382249610
H                     4.020257442416     0.337311889492     3.568538688836
H                     2.940037556317    -2.634390392837     6.468291598095
H                    -0.160742493797     0.157037560100     5.000647973637
H                     0.916895790696    -0.178979697345     6.393589984936
H                     1.371396338912     1.072046786414     5.173193034854
H                     0.238167713266    -2.739927648905     4.427026391442
H                     1.003147458493    -0.635982708716     2.373772288782
