
  -OEChem-12122420533D

 17 17  0     1  0  0  0  0  0999 V2000
    1.8303   -1.4447    0.9344 C   0  0  0  0  0  0  0  0  0  0  0  0
    1.0546   -0.3108    1.1957 C   0  0  0  0  0  0  0  0  0  0  0  0
    2.4001   -2.1580    1.9918 C   0  0  0  0  0  0  0  0  0  0  0  0
    0.8419    0.1139    2.5109 C   0  0  0  0  0  0  0  0  0  0  0  0
    2.2028   -1.7300    3.3051 C   0  0  0  0  0  0  0  0  0  0  0  0
    1.4161   -0.6051    3.5604 C   0  0  0  0  0  0  0  0  0  0  0  0
    4.3542   -1.6375    4.9753 C   0  0  0  0  0  0  0  0  0  0  0  0
    3.5453   -3.9628    3.9196 O   0  0  0  0  0  0  0  0  0  0  0  0
    2.9430   -2.7637    4.6273 S   0  0  2  0  0  0  0  0  0  0  0  0
    1.1359   -0.0701    5.2145 Cl  0  0  0  0  0  0  0  0  0  0  0  0
    1.9856   -1.7767   -0.0883 H   0  0  0  0  0  0  0  0  0  0  0  0
    0.6043    0.2455    0.3782 H   0  0  0  0  0  0  0  0  0  0  0  0
    2.9928   -3.0561    1.8330 H   0  0  0  0  0  0  0  0  0  0  0  0
    0.2356    0.9885    2.7253 H   0  0  0  0  0  0  0  0  0  0  0  0
    4.9585   -2.1303    5.7402 H   0  0  0  0  0  0  0  0  0  0  0  0
    3.9907   -0.6746    5.3390 H   0  0  0  0  0  0  0  0  0  0  0  0
    4.9283   -1.5243    4.0534 H   0  0  0  0  0  0  0  0  0  0  0  0
  1  2  1  0  0  0  0
  1  3  2  0  0  0  0
  1 11  1  0  0  0  0
  2  4  2  0  0  0  0
  2 12  1  0  0  0  0
  3  5  1  0  0  0  0
  3 13  1  0  0  0  0
  4  6  1  0  0  0  0
  4 14  1  0  0  0  0
  5  6  2  0  0  0  0
  5  9  1  0  0  0  0
  6 10  1  0  0  0  0
  7  9  1  0  0  0  0
  7 15  1  0  0  0  0
  7 16  1  0  0  0  0
  7 17  1  0  0  0  0
  8  9  2  0  0  0  0
M  END
$$$$
