
  -OEChem-12102412493D

 15 15  0     0  0  0  0  0  0999 V2000
   -3.0475    2.5158   -3.1867 C   0  0  0  0  0  0  0  0  0  0  0  0
   -3.0430    0.0372   -3.9112 C   0  0  0  0  0  0  0  0  0  0  0  0
   -1.7302    0.6342   -4.3658 C   0  0  0  0  0  0  0  0  0  0  0  0
   -2.4138    1.1622   -3.1284 C   0  0  0  0  0  0  0  0  0  0  0  0
   -3.5406    4.5030   -2.0284 C   0  0  0  0  0  0  0  0  0  0  0  0
   -3.5928    2.9423   -4.1905 O   0  0  0  0  0  0  0  0  0  0  0  0
   -2.9441    3.1866   -2.0286 O   0  0  0  0  0  0  0  0  0  0  0  0
   -1.8444    0.8338   -1.9174 F   0  0  0  0  0  0  0  0  0  0  0  0
   -3.9407    0.2725   -4.4727 H   0  0  0  0  0  0  0  0  0  0  0  0
   -3.0135   -0.9343   -3.4286 H   0  0  0  0  0  0  0  0  0  0  0  0
   -0.8273    0.0606   -4.1827 H   0  0  0  0  0  0  0  0  0  0  0  0
   -1.7276    1.2778   -5.2387 H   0  0  0  0  0  0  0  0  0  0  0  0
   -3.3797    4.8903   -1.0231 H   0  0  0  0  0  0  0  0  0  0  0  0
   -4.6074    4.4359   -2.2529 H   0  0  0  0  0  0  0  0  0  0  0  0
   -3.0542    5.1386   -2.7716 H   0  0  0  0  0  0  0  0  0  0  0  0
  1  4  1  0  0  0  0
  1  6  2  0  0  0  0
  1  7  1  0  0  0  0
  2  3  1  0  0  0  0
  2  4  1  0  0  0  0
  2  9  1  0  0  0  0
  2 10  1  0  0  0  0
  3  4  1  0  0  0  0
  3 11  1  0  0  0  0
  3 12  1  0  0  0  0
  4  8  1  0  0  0  0
  5  7  1  0  0  0  0
  5 13  1  0  0  0  0
  5 14  1  0  0  0  0
  5 15  1  0  0  0  0
M  END
$$$$
