
  -OEChem-12102412493D

 18 18  0     0  0  0  0  0  0999 V2000
   -1.0818   -3.5974    0.7441 C   0  0  0  0  0  0  0  0  0  0  0  0
   -2.4067   -3.4325    0.3382 C   0  0  0  0  0  0  0  0  0  0  0  0
   -0.1571   -2.6008    0.4216 C   0  0  0  0  0  0  0  0  0  0  0  0
   -2.7424   -2.2718   -0.3694 C   0  0  0  0  0  0  0  0  0  0  0  0
   -0.5868   -1.4758   -0.2946 C   0  0  0  0  0  0  0  0  0  0  0  0
    1.5295   -1.5819   -2.4101 C   0  0  0  0  0  0  0  0  0  0  0  0
    0.3832   -0.3824   -0.7005 C   0  0  0  0  0  0  0  0  0  0  0  0
   -1.8645   -1.3125   -0.6816 N   0  0  0  0  0  0  0  0  0  0  0  0
    0.7553   -0.4402   -2.0751 O   0  0  0  0  0  0  0  0  0  0  0  0
   -0.7743   -4.4808    1.2981 H   0  0  0  0  0  0  0  0  0  0  0  0
   -3.1661   -4.1759    0.5639 H   0  0  0  0  0  0  0  0  0  0  0  0
    0.8850   -2.6910    0.7170 H   0  0  0  0  0  0  0  0  0  0  0  0
   -3.7686   -2.1058   -0.6955 H   0  0  0  0  0  0  0  0  0  0  0  0
    1.8240   -1.4661   -3.4555 H   0  0  0  0  0  0  0  0  0  0  0  0
    0.9589   -2.5143   -2.3012 H   0  0  0  0  0  0  0  0  0  0  0  0
    2.4358   -1.6493   -1.7874 H   0  0  0  0  0  0  0  0  0  0  0  0
   -0.0995    0.5883   -0.5704 H   0  0  0  0  0  0  0  0  0  0  0  0
    1.2816   -0.4249   -0.0648 H   0  0  0  0  0  0  0  0  0  0  0  0
  1  2  1  0  0  0  0
  1  3  2  0  0  0  0
  1 10  1  0  0  0  0
  2  4  2  0  0  0  0
  2 11  1  0  0  0  0
  3  5  1  0  0  0  0
  3 12  1  0  0  0  0
  4  8  1  0  0  0  0
  4 13  1  0  0  0  0
  5  7  1  0  0  0  0
  5  8  2  0  0  0  0
  6  9  1  0  0  0  0
  6 14  1  0  0  0  0
  6 15  1  0  0  0  0
  6 16  1  0  0  0  0
  7  9  1  0  0  0  0
  7 17  1  0  0  0  0
  7 18  1  0  0  0  0
M  END
$$$$
