
  -OEChem-12102412493D

 27 28  0     1  0  0  0  0  0999 V2000
   -2.6064   -1.0741   -0.2565 C   0  0  0  0  0  0  0  0  0  0  0  0
   -4.7135   -2.7456    1.6271 C   0  0  0  0  0  0  0  0  0  0  0  0
   -3.8850   -2.6204    2.8897 C   0  0  0  0  0  0  0  0  0  0  0  0
   -0.2390    1.8973    0.2265 C   0  0  0  0  0  0  0  0  0  0  0  0
    1.1420    0.1481   -0.6337 C   0  0  0  0  0  0  0  0  0  0  0  0
   -3.2137   -2.6256    1.5367 C   0  0  0  0  0  0  0  0  0  0  0  0
    0.8609    1.6554   -0.8190 C   0  0  1  0  0  0  0  0  0  0  0  0
   -1.8594    0.2190   -0.5904 C   0  0  0  0  0  0  0  0  0  0  0  0
   -0.8865    0.5979    0.4446 N   0  0  1  0  0  0  0  0  0  0  0  0
   -2.6479   -1.3923    1.0687 N   0  0  0  0  0  0  0  0  0  0  0  0
   -3.1623   -1.7182   -1.1437 O   0  0  0  0  0  0  0  0  0  0  0  0
    0.2326   -0.3182    0.3917 O   0  0  0  0  0  0  0  0  0  0  0  0
    0.3322    1.9782   -2.1100 O   0  0  0  0  0  0  0  0  0  0  0  0
   -5.1553   -3.7067    1.3842 H   0  0  0  0  0  0  0  0  0  0  0  0
   -5.2893   -1.8820    1.3121 H   0  0  0  0  0  0  0  0  0  0  0  0
   -3.9232   -1.6748    3.4233 H   0  0  0  0  0  0  0  0  0  0  0  0
   -3.7571   -3.4945    3.5211 H   0  0  0  0  0  0  0  0  0  0  0  0
    0.2033    2.2171    1.1738 H   0  0  0  0  0  0  0  0  0  0  0  0
   -0.9583    2.6445   -0.1118 H   0  0  0  0  0  0  0  0  0  0  0  0
    0.9713   -0.3871   -1.5757 H   0  0  0  0  0  0  0  0  0  0  0  0
    2.1492   -0.0668   -0.2681 H   0  0  0  0  0  0  0  0  0  0  0  0
   -2.6670   -3.5216    1.2488 H   0  0  0  0  0  0  0  0  0  0  0  0
    1.7479    2.2664   -0.6125 H   0  0  0  0  0  0  0  0  0  0  0  0
   -1.4269    0.1106   -1.5897 H   0  0  0  0  0  0  0  0  0  0  0  0
   -2.6030    1.0214   -0.6426 H   0  0  0  0  0  0  0  0  0  0  0  0
   -2.0123   -0.8770    1.6688 H   0  0  0  0  0  0  0  0  0  0  0  0
    1.0165    1.8126   -2.7773 H   0  0  0  0  0  0  0  0  0  0  0  0
  1  8  1  0  0  0  0
  1 10  1  0  0  0  0
  1 11  2  0  0  0  0
  2  3  1  0  0  0  0
  2  6  1  0  0  0  0
  2 14  1  0  0  0  0
  2 15  1  0  0  0  0
  3  6  1  0  0  0  0
  3 16  1  0  0  0  0
  3 17  1  0  0  0  0
  4  7  1  0  0  0  0
  4  9  1  0  0  0  0
  4 18  1  0  0  0  0
  4 19  1  0  0  0  0
  5  7  1  0  0  0  0
  5 12  1  0  0  0  0
  5 20  1  0  0  0  0
  5 21  1  0  0  0  0
  6 10  1  0  0  0  0
  6 22  1  0  0  0  0
  7 13  1  0  0  0  0
  7 23  1  0  0  0  0
  8  9  1  0  0  0  0
  8 24  1  0  0  0  0
  8 25  1  0  0  0  0
  9 12  1  0  0  0  0
 10 26  1  0  0  0  0
 13 27  1  0  0  0  0
M  END
$$$$
