
  -OEChem-12102412493D

 28 29  0     1  0  0  0  0  0999 V2000
    2.3606   -2.7300   -0.3877 C   0  0  0  0  0  0  0  0  0  0  0  0
    3.8540   -5.6168   -0.1263 C   0  0  0  0  0  0  0  0  0  0  0  0
    5.1301   -5.1649   -0.7985 C   0  0  0  0  0  0  0  0  0  0  0  0
    0.9660   -1.1470    2.1113 C   0  0  0  0  0  0  0  0  0  0  0  0
   -0.3946    0.6748    1.4588 C   0  0  0  0  0  0  0  0  0  0  0  0
    3.8123   -4.5353   -1.1771 C   0  0  0  0  0  0  0  0  0  0  0  0
   -0.3726   -0.4995    2.4455 C   0  0  1  0  0  0  0  0  0  0  0  0
    2.2372   -1.2171   -0.1113 C   0  0  0  0  0  0  0  0  0  0  0  0
    3.5762   -3.1670   -0.7598 N   0  0  0  0  0  0  0  0  0  0  0  0
    0.9461   -1.0468    0.6132 N   0  3  2  0  0  0  0  0  0  0  0  0
    1.3479   -3.4223   -0.2632 O   0  0  0  0  0  0  0  0  0  0  0  0
    0.3821    0.2300    0.2955 O   0  0  0  0  0  0  0  0  0  0  0  0
   -1.3480   -1.4819    2.1389 O   0  0  0  0  0  0  0  0  0  0  0  0
    3.4302   -6.5790   -0.3927 H   0  0  0  0  0  0  0  0  0  0  0  0
    3.6930   -5.3154    0.9034 H   0  0  0  0  0  0  0  0  0  0  0  0
    5.8232   -4.5715   -0.2087 H   0  0  0  0  0  0  0  0  0  0  0  0
    5.5987   -5.8135   -1.5310 H   0  0  0  0  0  0  0  0  0  0  0  0
    1.8185   -0.5781    2.4835 H   0  0  0  0  0  0  0  0  0  0  0  0
    1.0193   -2.1981    2.3936 H   0  0  0  0  0  0  0  0  0  0  0  0
   -1.3991    0.9083    1.1041 H   0  0  0  0  0  0  0  0  0  0  0  0
    0.0933    1.5686    1.8548 H   0  0  0  0  0  0  0  0  0  0  0  0
    3.3777   -4.7786   -2.1424 H   0  0  0  0  0  0  0  0  0  0  0  0
   -0.4142   -0.1638    3.4867 H   0  0  0  0  0  0  0  0  0  0  0  0
    2.1436   -0.6615   -1.0471 H   0  0  0  0  0  0  0  0  0  0  0  0
    3.0464   -0.7945    0.4848 H   0  0  0  0  0  0  0  0  0  0  0  0
    4.3177   -2.4898   -0.9068 H   0  0  0  0  0  0  0  0  0  0  0  0
    0.3209   -1.8001    0.2539 H   0  0  0  0  0  0  0  0  0  0  0  0
   -2.2296   -1.1920    2.4255 H   0  0  0  0  0  0  0  0  0  0  0  0
  1  8  1  0  0  0  0
  1  9  1  0  0  0  0
  1 11  2  0  0  0  0
  2  3  1  0  0  0  0
  2  6  1  0  0  0  0
  2 14  1  0  0  0  0
  2 15  1  0  0  0  0
  3  6  1  0  0  0  0
  3 16  1  0  0  0  0
  3 17  1  0  0  0  0
  4  7  1  0  0  0  0
  4 10  1  0  0  0  0
  4 18  1  0  0  0  0
  4 19  1  0  0  0  0
  5  7  1  0  0  0  0
  5 12  1  0  0  0  0
  5 20  1  0  0  0  0
  5 21  1  0  0  0  0
  6  9  1  0  0  0  0
  6 22  1  0  0  0  0
  7 13  1  0  0  0  0
  7 23  1  0  0  0  0
  8 10  1  0  0  0  0
  8 24  1  0  0  0  0
  8 25  1  0  0  0  0
  9 26  1  0  0  0  0
 10 12  1  0  0  0  0
 10 27  1  0  0  0  0
 13 28  1  0  0  0  0
M  CHG  1  10   1
M  END
$$$$
