
  -OEChem-12102412493D

 27 28  0     1  0  0  0  0  0999 V2000
   -2.0635    0.6960    3.2990 C   0  0  0  0  0  0  0  0  0  0  0  0
   -2.3539    0.8107    6.5584 C   0  0  0  0  0  0  0  0  0  0  0  0
   -2.0956   -0.6676    6.7660 C   0  0  0  0  0  0  0  0  0  0  0  0
   -1.9227   -1.6907    1.1293 C   0  0  0  0  0  0  0  0  0  0  0  0
   -0.1013   -1.0113   -0.2767 C   0  0  0  0  0  0  0  0  0  0  0  0
   -2.7410   -0.1813    5.4903 C   0  0  0  0  0  0  0  0  0  0  0  0
   -1.5614   -1.4777   -0.3649 C   0  0  1  0  0  0  0  0  0  0  0  0
   -1.1598    0.4355    2.0880 C   0  0  0  0  0  0  0  0  0  0  0  0
   -0.8867   -0.9996    1.9078 N   0  0  2  0  0  0  0  0  0  0  0  0
   -1.9651   -0.2401    4.2840 N   0  0  0  0  0  0  0  0  0  0  0  0
   -2.7730    1.6976    3.3569 O   0  0  0  0  0  0  0  0  0  0  0  0
    0.2958   -1.1746    1.1033 O   0  0  0  0  0  0  0  0  0  0  0  0
   -1.6244   -2.6822   -1.1315 O   0  0  0  0  0  0  0  0  0  0  0  0
   -3.1551    1.2855    7.1156 H   0  0  0  0  0  0  0  0  0  0  0  0
   -1.5023    1.4476    6.3445 H   0  0  0  0  0  0  0  0  0  0  0  0
   -1.0665   -1.0104    6.7055 H   0  0  0  0  0  0  0  0  0  0  0  0
   -2.7160   -1.2145    7.4695 H   0  0  0  0  0  0  0  0  0  0  0  0
   -2.9106   -1.3138    1.4062 H   0  0  0  0  0  0  0  0  0  0  0  0
   -1.8675   -2.7620    1.3425 H   0  0  0  0  0  0  0  0  0  0  0  0
    0.5514   -1.6443   -0.8799 H   0  0  0  0  0  0  0  0  0  0  0  0
    0.0100    0.0359   -0.5813 H   0  0  0  0  0  0  0  0  0  0  0  0
   -3.8047   -0.3696    5.3601 H   0  0  0  0  0  0  0  0  0  0  0  0
   -2.1898   -0.7083   -0.8291 H   0  0  0  0  0  0  0  0  0  0  0  0
   -1.6272    0.9268    1.2249 H   0  0  0  0  0  0  0  0  0  0  0  0
   -0.1996    0.9225    2.2782 H   0  0  0  0  0  0  0  0  0  0  0  0
   -1.4156   -1.0656    4.0655 H   0  0  0  0  0  0  0  0  0  0  0  0
   -2.5567   -2.9195   -1.2556 H   0  0  0  0  0  0  0  0  0  0  0  0
  1  8  1  0  0  0  0
  1 10  1  0  0  0  0
  1 11  2  0  0  0  0
  2  3  1  0  0  0  0
  2  6  1  0  0  0  0
  2 14  1  0  0  0  0
  2 15  1  0  0  0  0
  3  6  1  0  0  0  0
  3 16  1  0  0  0  0
  3 17  1  0  0  0  0
  4  7  1  0  0  0  0
  4  9  1  0  0  0  0
  4 18  1  0  0  0  0
  4 19  1  0  0  0  0
  5  7  1  0  0  0  0
  5 12  1  0  0  0  0
  5 20  1  0  0  0  0
  5 21  1  0  0  0  0
  6 10  1  0  0  0  0
  6 22  1  0  0  0  0
  7 13  1  0  0  0  0
  7 23  1  0  0  0  0
  8  9  1  0  0  0  0
  8 24  1  0  0  0  0
  8 25  1  0  0  0  0
  9 12  1  0  0  0  0
 10 26  1  0  0  0  0
 13 27  1  0  0  0  0
M  END
$$$$
