
  -OEChem-12102412493D

 28 29  0     1  0  0  0  0  0999 V2000
   -2.0144    0.3621   -1.9206 C   0  0  0  0  0  0  0  0  0  0  0  0
   -5.0272   -0.7723   -2.1363 C   0  0  0  0  0  0  0  0  0  0  0  0
   -5.5758    0.4188   -2.8873 C   0  0  0  0  0  0  0  0  0  0  0  0
    0.7973    1.3290   -0.6207 C   0  0  0  0  0  0  0  0  0  0  0  0
    2.6615    0.7840   -1.9511 C   0  0  0  0  0  0  0  0  0  0  0  0
   -4.4544    0.6016   -1.8934 C   0  0  0  0  0  0  0  0  0  0  0  0
    2.0078    1.9868   -1.2695 C   0  0  1  0  0  0  0  0  0  0  0  0
   -0.6967    0.7637   -2.6098 C   0  0  0  0  0  0  0  0  0  0  0  0
   -3.1368    0.9108   -2.4129 N   0  0  0  0  0  0  0  0  0  0  0  0
    0.3804    0.3201   -1.6661 N   0  3  1  0  0  0  0  0  0  0  0  0
   -1.9527   -0.4513   -0.9921 O   0  0  0  0  0  0  0  0  0  0  0  0
    1.5543   -0.0629   -2.3911 O   0  0  0  0  0  0  0  0  0  0  0  0
    1.5067    2.9453   -2.1905 O   0  0  0  0  0  0  0  0  0  0  0  0
   -5.6170   -1.2083   -1.3374 H   0  0  0  0  0  0  0  0  0  0  0  0
   -4.4127   -1.4767   -2.6869 H   0  0  0  0  0  0  0  0  0  0  0  0
   -5.3332    0.4992   -3.9432 H   0  0  0  0  0  0  0  0  0  0  0  0
   -6.5494    0.8120   -2.6145 H   0  0  0  0  0  0  0  0  0  0  0  0
    1.0586    0.7798    0.2839 H   0  0  0  0  0  0  0  0  0  0  0  0
   -0.0253    2.0153   -0.4288 H   0  0  0  0  0  0  0  0  0  0  0  0
    3.2203    1.0438   -2.8506 H   0  0  0  0  0  0  0  0  0  0  0  0
    3.2875    0.2102   -1.2617 H   0  0  0  0  0  0  0  0  0  0  0  0
   -4.6750    1.0869   -0.9468 H   0  0  0  0  0  0  0  0  0  0  0  0
    2.6649    2.4330   -0.5160 H   0  0  0  0  0  0  0  0  0  0  0  0
   -0.5747    1.8265   -2.8147 H   0  0  0  0  0  0  0  0  0  0  0  0
   -0.5525    0.1900   -3.5277 H   0  0  0  0  0  0  0  0  0  0  0  0
   -3.0600    1.6244   -3.1300 H   0  0  0  0  0  0  0  0  0  0  0  0
   -0.0145   -0.5235   -1.2024 H   0  0  0  0  0  0  0  0  0  0  0  0
    2.2304    3.5032   -2.5202 H   0  0  0  0  0  0  0  0  0  0  0  0
  1  8  1  0  0  0  0
  1  9  1  0  0  0  0
  1 11  2  0  0  0  0
  2  3  1  0  0  0  0
  2  6  1  0  0  0  0
  2 14  1  0  0  0  0
  2 15  1  0  0  0  0
  3  6  1  0  0  0  0
  3 16  1  0  0  0  0
  3 17  1  0  0  0  0
  4  7  1  0  0  0  0
  4 10  1  0  0  0  0
  4 18  1  0  0  0  0
  4 19  1  0  0  0  0
  5  7  1  0  0  0  0
  5 12  1  0  0  0  0
  5 20  1  0  0  0  0
  5 21  1  0  0  0  0
  6  9  1  0  0  0  0
  6 22  1  0  0  0  0
  7 13  1  0  0  0  0
  7 23  1  0  0  0  0
  8 10  1  0  0  0  0
  8 24  1  0  0  0  0
  8 25  1  0  0  0  0
  9 26  1  0  0  0  0
 10 12  1  0  0  0  0
 10 27  1  0  0  0  0
 13 28  1  0  0  0  0
M  CHG  1  10   1
M  END
$$$$
