19   
torsion grid (-165,)
C        1.8589876773   -1.1357866867   -0.0257376670
C        3.0286550363   -1.6121154153    2.0722327927
C        0.8028818101   -0.5760736551    0.6894040562
C        1.9698908067   -1.0523394774    2.7885568877
C        2.9510557654   -1.6447941173    0.6806759858
C        0.8757385688   -0.5493656155    2.0845058678
N       -1.6711233672   -1.0869633671    2.7733760793
N        4.0713432017   -2.2431436640   -0.0789817354
O        3.9710636741   -2.2764869976   -1.3080572825
O        5.0331303186   -2.6693857779    0.5652516998
O       -1.0805709461    1.2735414623    2.2486952629
O       -0.0755066215    0.3145902168    4.3962049037
S       -0.4840958795    0.1710305112    3.0022604211
Cl      -1.4244130203   -2.4991871189    3.7973407174
H        1.8493294847   -1.1815323148   -1.1082042373
H        3.9003335733   -2.0163035345    2.5729445387
H       -0.0608250207   -0.1641688108    0.1780129196
H        1.9888811714   -1.0013568293    3.8719290282
H       -2.5753233464   -0.6782128793    3.0381641411
19   
torsion grid (-150,)
C        1.9108218276   -1.1102779483    0.0072866148
C        3.0288204476   -1.6880275308    2.1083981509
C        0.8447664247   -0.5687926082    0.7223203510
C        1.9627046947   -1.1416067577    2.8237590907
C        2.9805239875   -1.6626260800    0.7151196302
C        0.8884151930   -0.5979443566    2.1182797154
N       -1.5994418342   -1.2395464885    2.9519383629
N        4.1108715855   -2.2409578151   -0.0445948914
O        4.0483906749   -2.2034621304   -1.2761864028
O        5.0429707432   -2.7256318502    0.6021983754
O       -1.1657213821    1.0968663360    2.2191346708
O       -0.0428664045    0.3551363275    4.4035368721
S       -0.4856877834    0.0932667343    3.0392368497
Cl      -1.4651587569   -2.4202276797    4.2404352510
H        1.9253211396   -1.1089858547   -1.0761255049
H        3.8850510167   -2.1222147881    2.6107163906
H       -0.0018994883   -0.1230674430    0.2109162092
H        1.9663019639   -1.1266859409    3.9084312838
H       -2.5426326876   -0.8372274922    2.9721251815
19   
torsion grid (-135,)
C        1.9155282745   -1.0624421146   -0.0839534981
C        3.0081001878   -1.7171133662    2.0077844408
C        0.8532337834   -0.5235040495    0.6393438717
C        1.9464041555   -1.1732632937    2.7307617576
C        2.9699777866   -1.6530453297    0.6149652123
C        0.8854062589   -0.5926270434    2.0337312483
N       -1.5646669182   -1.2756687509    2.9726545210
N        4.0951386436   -2.2293898852   -0.1529441708
O        4.0404699957   -2.1585098908   -1.3835480480
O        5.0159705649   -2.7451367392    0.4860451332
O       -1.1971208535    1.0449989039    2.1154004300
O       -0.0228171749    0.4010539294    4.3126547556
S       -0.4866084790    0.0892927526    2.9673317316
Cl      -1.6294541089   -2.2145717963    4.4437458000
H        1.9382494983   -1.0299663021   -1.1667693712
H        3.8539263986   -2.1783676098    2.5036127131
H        0.0195673293   -0.0463552895    0.1351814004
H        1.9457667928   -1.1869575258    3.8156033443
H       -2.4994497156   -0.9200878911    2.7512710872
19   
torsion grid (-120,)
C        1.8247340051   -0.9736513322   -0.1343437830
C        2.8782041257   -1.7091606259    1.9505018953
C        0.7682782289   -0.4273070185    0.5936324395
C        1.8227424230   -1.1599054030    2.6766078060
C        2.8564305424   -1.6076478841    0.5585928768
C        0.7827495878   -0.5345830215    1.9851530089
N       -1.6131728148   -1.2391192126    3.0428309975
N        3.9753322309   -2.1901106899   -0.2130375601
O        3.9359880711   -2.0834661116   -1.4417198265
O        4.8760403853   -2.7460420311    0.4208978311
O       -1.3107030850    1.0733908945    2.0434766905
O       -0.0965153409    0.5283947678    4.2493720791
S       -0.5794410230    0.1619332900    2.9253954505
Cl      -1.9324199815   -1.8426320150    4.6497872411
H        1.8597682229   -0.9123285933   -1.2155982141
H        3.7077523084   -2.2033402241    2.4421371227
H       -0.0466942768    0.0860241555    0.0945670850
H        1.8118361620   -1.2031358174    3.7607584370
H       -2.5010372097   -0.9950129917    2.5954757486
19   
torsion grid (-105,)
C        1.9750024657   -0.9541919984   -0.1262832333
C        2.8978472475   -1.6789455515    2.0234134020
C        0.8752467286   -0.4035639192    0.5328816532
C        1.7990151132   -1.1298450331    2.6800305703
C        2.9622288923   -1.5829728014    0.6315347328
C        0.8042265612   -0.5060426270    1.9226137731
N       -1.5457484483   -1.2634819930    2.9936997306
N        4.1278086933   -2.1674028647   -0.0666920544
O        4.1535227858   -2.0871533653   -1.2976539922
O        4.9989579890   -2.6986808793    0.6267298956
O       -1.3298962816    1.0490854362    1.8216634568
O       -0.1844892447    0.6686302947    4.0919709240
S       -0.6052475096    0.2086448787    2.7764808640
Cl      -2.2900860648   -1.4269132962    4.5738079455
H        2.0763304885   -0.8980763991   -1.2036179926
H        3.6956411598   -2.1707346752    2.5672144707
H        0.0933593972    0.1098598126   -0.0168463986
H        1.7177859705   -1.1744504082    3.7611307413
H       -2.3097887169   -1.2182743425    2.3121787864
19   
torsion grid (-90,)
C        1.9786205039   -0.9438605434   -0.1567027528
C        2.8278454623   -1.7333586548    2.0010655563
C        0.8719574393   -0.3854445188    0.4855218993
C        1.7240728345   -1.1752552064    2.6404225098
C        2.9321443313   -1.6077968705    0.6134388081
C        0.7625000426   -0.5141557104    1.8705452622
N       -1.4857371093   -1.2773453176    3.0697717978
N        4.1046322479   -2.2020094187   -0.0660981171
O        4.1770045089   -2.0761807628   -1.2912184266
O        4.9334021672   -2.7861771941    0.6365238162
O       -1.4106506191    0.9938684598    1.7174409786
O       -0.2222822131    0.7896199301    3.9776265461
S       -0.6457424795    0.2284639949    2.7029083219
Cl      -2.5595088302   -1.1355700963    4.4590836384
H        2.1095601979   -0.8676618838   -1.2296173485
H        3.5993294525   -2.2556534414    2.5542529023
H        0.1118913205    0.1513029130   -0.0726929899
H        1.6099435730   -1.2454075365    3.7171376484
H       -2.0998640300   -1.4641753628    2.2694825588
19   
torsion grid (-75,)
C        1.9660855915   -0.9449998890   -0.1444478736
C        2.8463140914   -1.7340658821    2.0012991723
C        0.8679938699   -0.3877083464    0.5129663505
C        1.7512999385   -1.1765622876    2.6568350230
C        2.9307563525   -1.6084367724    0.6125834020
C        0.7782280822   -0.5169338155    1.8998951203
N       -1.4125365449   -1.2980204195    3.1407457846
N        4.0939993587   -2.2025962307   -0.0839516231
O        4.1465915934   -2.0793835595   -1.3102205898
O        4.9341804869   -2.7839547366    0.6070879458
O       -1.4019338042    0.9881615696    1.7790681372
O       -0.1937286089    0.7919585805    4.0212386553
S       -0.6203134759    0.2230275640    2.7509768979
Cl      -2.7558790473   -1.0692335625    4.2608167163
H        2.0823871044   -0.8684820513   -1.2190253963
H        3.6261945271   -2.2555918963    2.5433327766
H        0.0996449638    0.1490643996   -0.0339517821
H        1.6514658630   -1.2454576631    3.7350466337
H       -1.8354184371   -1.6403098279    2.2703811578
19   
torsion grid (-60,)
C        1.9028020398   -0.9478167638   -0.1322174338
C        2.8190803019   -1.7022187032    2.0115696011
C        0.8217135753   -0.3693312217    0.5343723789
C        1.7415711693   -1.1206653153    2.6765791319
C        2.8764041658   -1.6049579306    0.6196649366
C        0.7580893776   -0.4699395937    1.9255928567
N       -1.4190114921   -1.2256156820    3.1857124215
N        4.0206346521   -2.2236083946   -0.0880138104
O        4.0546290127   -2.1169109590   -1.3163392925
O        4.8637360799   -2.8075938077    0.5969137988
O       -1.4020107609    1.0654452387    1.8225085565
O       -0.1870806583    0.8593425616    4.0542476117
S       -0.6235579541    0.2893749236    2.7878868143
Cl      -2.9610001023   -0.9636900131    3.9950345412
H        1.9996709258   -0.8928729474   -1.2100490097
H        3.6054638195   -2.2190353739    2.5487785900
H        0.0469183515    0.1629405042   -0.0079752171
H        1.6636224970   -1.1631197791    3.7580214069
H       -1.6328375365   -1.6975467362    2.2999155489
19   
torsion grid (-45,)
C        1.8770340685   -0.9561536021   -0.1232308401
C        2.8359687770   -1.6803070009    2.0124220646
C        0.8077085289   -0.3708884139    0.5554592484
C        1.7700258736   -1.0903269554    2.6900503399
C        2.8664252034   -1.6016676226    0.6190559458
C        0.7706474983   -0.4524985474    1.9494096282
N       -1.4251512777   -1.1975168990    3.2027712764
N        3.9994511114   -2.2257739172   -0.1020240147
O        4.0054079810   -2.1414849744   -1.3324724931
O        4.8628161580   -2.7887947731    0.5751001263
O       -1.3690950839    1.1146573429    1.8780100588
O       -0.1523832368    0.8576374542    4.1005264354
S       -0.5995242406    0.3113781334    2.8273391196
Cl      -3.1018765019   -0.9473292630    3.6640197760
H        1.9542068282   -0.9146660605   -1.2032801698
H        3.6341500734   -2.1874053836    2.5414971952
H        0.0219911557    0.1532101925    0.0208181828
H        1.7151533069   -1.1138600145    3.7735900795
H       -1.4263605757   -1.7699226260    2.3517503094
19   
torsion grid (-30,)
C        1.7961503714   -0.9910497205   -0.1071627170
C        2.8189423173   -1.6417227712    2.0220110026
C        0.7382353128   -0.3987959030    0.5820335024
C        1.7641808857   -1.0432897611    2.7111486652
C        2.8119470374   -1.6052148389    0.6271128511
C        0.7377182613   -0.4409292198    1.9789229123
N       -1.5291318011   -1.1702472175    3.1648861304
N        3.9311005578   -2.2407835141   -0.1054021325
O        3.9088254828   -2.1843416183   -1.3372803563
O        4.8107417062   -2.7870172480    0.5643740454
O       -1.3611355670    1.1899993016    1.9544207674
O       -0.1723810064    0.7876988381    4.1708354378
S       -0.6272926417    0.3183249938    2.8698891088
Cl      -3.2639815153   -0.9298050087    3.2257831480
H        1.8453914218   -0.9793253013   -1.1895839790
H        3.6369751225   -2.1233938316    2.5444979008
H       -0.0656918988    0.1027970087    0.0526701580
H        1.7387516349   -1.0320572119    3.7960882610
H       -1.3348877855   -1.8154016469    2.3932886931
19   
torsion grid (-15,)
C        1.8135188760   -1.0508413744   -0.0780689561
C        2.8493776788   -1.6143642446    2.0697059868
C        0.7636018972   -0.4244456064    0.5921335237
C        1.8010092169   -0.9833612467    2.7398963178
C        2.8322667244   -1.6376163847    0.6749046218
C        0.7718877139   -0.4082619690    1.9899494769
N       -1.6000516341   -1.0465950203    3.1333545972
N        3.9440502228   -2.3075000748   -0.0371684484
O        3.9012001110   -2.3235985164   -1.2696828217
O        4.8389040492   -2.8069881069    0.6488454298
O       -1.2705470138    1.2997125643    1.9390222044
O       -0.1301286027    0.8138701215    4.1699084351
S       -0.5887634737    0.3897555040    2.8545638682
Cl      -3.2866979755   -0.8152983767    2.7139840145
H        1.8554399591   -1.0849521439   -1.1603437519
H        3.6702229418   -2.0750006594    2.6066208993
H       -0.0406526993    0.0588422040    0.0463610730
H        1.7838047293   -0.9244852068    3.8234697882
H       -1.2509739885   -1.7927239111    2.5248358583
19   
torsion grid (0,)
C        1.7785310571   -1.0884672187   -0.0750800051
C        2.8453278162   -1.5996901554    2.0698962887
C        0.7355133511   -0.4517864132    0.5960309509
C        1.8025554605   -0.9606161917    2.7411572473
C        2.8103403829   -1.6541194643    0.6762588491
C        0.7606712891   -0.4060481939    1.9933138578
N       -1.7016691090   -0.9887028207    3.0996863134
N        3.9158484976   -2.3341019656   -0.0353680041
O        3.8578825550   -2.3758697384   -1.2666972567
O        4.8209788286   -2.8165320387    0.6495979979
O       -1.2410164170    1.3578990602    1.9696224671
O       -0.1408815390    0.7371584224    4.1957597509
S       -0.6002248178    0.3949993581    2.8563965187
Cl      -3.2224189239   -0.8465419187    2.2252223597
H        1.8056235920   -1.1458774079   -1.1568460778
H        3.6762693625   -2.0432968863    2.6056515425
H       -0.0771222768    0.0163702449    0.0494563838
H        1.7992317416   -0.8790898273    3.8233439720
H       -1.2460628379   -1.8087139158    2.6871095867
19   
torsion grid (15,)
C        1.7441473212   -1.1000036603   -0.0687199247
C        2.8083215179   -1.5968213418    2.0812398169
C        0.7144380454   -0.4340341119    0.5948508723
C        1.7781724215   -0.9303660603    2.7446067346
C        2.7676062517   -1.6721250672    0.6884604383
C        0.7434498734   -0.3686528271    1.9913822872
N       -1.7781250993   -0.8637705004    3.0842032765
N        3.8585694355   -2.3828116847   -0.0151880851
O        3.7995653008   -2.4401008244   -1.2458609246
O        4.7545941503   -2.8740718531    0.6756256370
O       -1.2174563864    1.4493047016    1.9733763709
O       -0.1534513940    0.7455425668    4.1991296399
S       -0.6093304818    0.4557827879    2.8454757814
Cl      -3.0520830970   -0.9036274624    1.8601649229
H        1.7667007635   -1.1753136623   -1.1494844505
H        3.6335190367   -2.0455820456    2.6216291390
H       -0.0912821591    0.0389019466    0.0424416660
H        1.7796083287   -0.8328174185    3.8253743896
H       -1.2692564083   -1.7377232380    2.9137402044
19   
torsion grid (30,)
C        1.7358259476   -1.0744017942   -0.0878673233
C        2.7853822121   -1.6108488515    2.0590179694
C        0.7166425982   -0.3967587110    0.5807393669
C        1.7656970726   -0.9340703583    2.7272621514
C        2.7471577937   -1.6718585918    0.6651198490
C        0.7423453766   -0.3463683381    1.9775648509
N       -1.7981250653   -0.7800879577    3.0864664940
N        3.8277837967   -2.3935277990   -0.0431544421
O        3.7750634068   -2.4301342988   -1.2749161463
O        4.7097428568   -2.9135930818    0.6448521815
O       -1.1926257311    1.4932334121    1.9716356485
O       -0.1401760037    0.7559882275    4.1968982636
S       -0.5985041312    0.4888299781    2.8384438445
Cl      -2.8275595497   -1.0514505591    1.6715969300
H        1.7587817377   -1.1395774056   -1.1692806097
H        3.6020028776   -2.0783172316    2.5965171035
H       -0.0791683503    0.0953680242    0.0315460458
H        1.7689456829   -0.8458796005    3.8089697095
H       -1.2838916350   -1.6637787772    3.1696227367
19   
torsion grid (45,)
C        1.7466246333   -1.0403447198   -0.1066951969
C        2.7784138001   -1.6371565469    2.0331498601
C        0.7335147292   -0.3634073769    0.5720044703
C        1.7646845437   -0.9610582602    2.7104074226
C        2.7457084402   -1.6674138217    0.6379401956
C        0.7527089733   -0.3431020526    1.9693525348
N       -1.7900524622   -0.7394733580    3.1064308179
N        3.8200394195   -2.3876935563   -0.0808880074
O        3.7723458524   -2.3949171270   -1.3133933970
O        4.6916307322   -2.9355184121    0.5989069369
O       -1.1691033866    1.4955666998    1.9746395565
O       -0.1160538164    0.7593208715    4.2031393993
S       -0.5772515785    0.4932837062    2.8445230987
Cl      -2.6125259821   -1.2494158187    1.6278686658
H        1.7734453984   -1.0830547810   -1.1891442296
H        3.5863894330   -2.1265368273    2.5641357239
H       -0.0527119098    0.1513271743    0.0302872762
H        1.7665282692   -0.8945499450    3.7937448751
H       -1.3087725802   -1.5827661627    3.4358767935
19   
torsion grid (60,)
C        1.7575389452   -1.0198962069   -0.1110133367
C        2.7551073734   -1.6562058476    2.0322522088
C        0.7392582119   -0.3452702820    0.5620932676
C        1.7358705479   -0.9834625485    2.7044059730
C        2.7425654425   -1.6655340134    0.6365371539
C        0.7389000565   -0.3466380296    1.9593914291
N       -1.8191424353   -0.7126543826    3.0863156846
N        3.8219290405   -2.3822903106   -0.0782231908
O        3.7919864388   -2.3730671713   -1.3113346444
O        4.6817290170   -2.9437851795    0.6055350485
O       -1.1651943083    1.4923683895    1.9482300949
O       -0.1486480403    0.7590256663    4.1960361500
S       -0.5925240502    0.4902075875    2.8311335534
Cl      -2.4515450689   -1.4446685969    1.6170967270
H        1.7989273351   -1.0468823056   -1.1934780352
H        3.5517633806   -2.1592172907    2.5674768594
H       -0.0353986405    0.1831416065    0.0172178908
H        1.7231548875   -0.9340380433    3.7886933045
H       -1.4203289598   -1.4728643228    3.6451187154
19   
torsion grid (75,)
C        1.7277864879   -0.9491558336   -0.1096028394
C        2.7275945456   -1.6906253136    1.9988288014
C        0.7205980197   -0.2938800849    0.5983081811
C        1.7195991504   -1.0353959672    2.7041808202
C        2.7083594757   -1.6383105013    0.6041675447
C        0.7268204351   -0.3547106691    1.9937864726
N       -1.8008569468   -0.7441545590    3.1755574714
N        3.7745841692   -2.3370971450   -0.1466716309
O        3.7438117683   -2.2672104090   -1.3778201166
O        4.6242608570   -2.9475159017    0.5072866487
O       -1.1785651028    1.4617065998    2.0360108234
O       -0.1310879853    0.7323032675    4.2692824179
S       -0.5891458146    0.4597260628    2.9089090674
Cl      -2.2969652499   -1.6722201439    1.7771512605
H        1.7629018449   -0.9301850515   -1.1924613429
H        3.5201299272   -2.2267603955    2.5073152031
H       -0.0537358100    0.2629926147    0.0819854789
H        1.7133258412   -1.0342827024    3.7896700432
H       -1.4897497656   -1.3862441137    3.9087627745
19   
torsion grid (90,)
C        1.7596703027   -0.9351795175   -0.1243933374
C        2.7192038477   -1.7097127052    1.9905332553
C        0.7459272229   -0.2809619749    0.5746425994
C        1.7033892954   -1.0573648208    2.6873936296
C        2.7241710642   -1.6394938218    0.5966555636
C        0.7289863074   -0.3596769143    1.9689019739
N       -1.8060444059   -0.7314378544    3.1274814438
N        3.7982694617   -2.3355372950   -0.1452347397
O        3.7819950978   -2.2583914918   -1.3762932364
O        4.6387413184   -2.9517633831    0.5150941276
O       -1.1521052538    1.4660019737    1.9837293954
O       -0.1558586751    0.7506494347    4.2397715633
S       -0.5892669882    0.4624073987    2.8732960476
Cl      -2.1501511247   -1.8485799395    1.8372361859
H        1.8125988595   -0.9034333346   -1.2062137136
H        3.4989573506   -2.2584447848    2.5052182899
H       -0.0168271715    0.2869323721    0.0531577381
H        1.6766344900   -1.0732354586    3.7725006293
H       -1.6433376728   -1.2243364787    4.0075742054
19   
torsion grid (105,)
C        1.8000405739   -0.9137085756   -0.1377225037
C        2.7060456345   -1.7429169660    1.9811443608
C        0.7838989356   -0.2551521224    0.5537988976
C        1.6879441192   -1.0858751101    2.6698879739
C        2.7386836638   -1.6466484231    0.5891366272
C        0.7404832167   -0.3583774235    1.9454728295
N       -1.7772670864   -0.7286039921    3.1058264092
N        3.8152943021   -2.3474484272   -0.1448127718
O        3.8224983138   -2.2509418660   -1.3745941678
O        4.6351858244   -2.9859310700    0.5203452211
O       -1.1346526244    1.4646162014    1.9307553951
O       -0.1522191513    0.8074994370    4.2016128414
S       -0.5755880072    0.4761139934    2.8409728371
Cl      -1.9655190346   -2.0330337506    1.9788834553
H        1.8737466319   -0.8643323754   -1.2176677936
H        3.4655201502   -2.3155394955    2.5000991217
H        0.0379327243    0.3322093824    0.0294423074
H        1.6376383662   -1.1240536844    3.7535931545
H       -1.7743532839   -1.0448675816    4.0762002725
19   
torsion grid (120,)
C        1.8767402015   -1.0964867778   -0.0313945062
C        2.9307339337   -1.6103736092    2.1186187157
C        0.8097625228   -0.4961757800    0.6351873201
C        1.8618237335   -1.0125898560    2.7845210742
C        2.9139360789   -1.6455033163    0.7237158062
C        0.8169181678   -0.4735692172    2.0313659628
N       -1.7501040722   -0.9656978052    3.1432209056
N        4.0439974819   -2.2887274991    0.0165076954
O        4.0053211441   -2.3088009581   -1.2161814915
O        4.9486657414   -2.7665276231    0.7058010241
O       -1.1650218777    1.2616960397    1.9668544724
O       -0.1315354121    0.7124904775    4.2366801429
S       -0.5472512318    0.3176414145    2.8877471909
Cl      -1.3333097647   -2.5830560409    2.5993553408
H        1.9158382658   -1.1407580110   -1.1133097543
H        3.7656396773   -2.0412170881    2.6583067821
H       -0.0123225978   -0.0485583012    0.0867388741
H        1.8408666746   -0.9556517361    3.8679708525
H       -1.8618938594   -1.0191903368    4.1607743969
19   
torsion grid (135,)
C        1.8622151436   -1.1260994833   -0.0293485886
C        2.9692183377   -1.5929741477    2.1060129867
C        0.8011214706   -0.5321373267    0.6516844527
C        1.9045244500   -1.0045616991    2.7870023391
C        2.9236173527   -1.6465696333    0.7124177189
C        0.8375083969   -0.4923553569    2.0471827081
N       -1.8054927341   -0.9493661196    2.9487124508
N        4.0505935933   -2.2785243564   -0.0100903978
O        3.9881461384   -2.3139395478   -1.2414007641
O        4.9780051973   -2.7305533608    0.6660827344
O       -1.0743180859    1.3628585285    2.0895497271
O       -0.1040831078    0.5393255815    4.3030621712
S       -0.5147719197    0.3011886722    2.9159533291
Cl      -1.2013060088   -2.6181348069    2.8526211533
H        1.8798138036   -1.1852677355   -1.1110723815
H        3.8212071844   -2.0048230387    2.6337707579
H       -0.0374599876   -0.1034832291    0.1125660027
H        1.8977783499   -0.9386819337    3.8697497936
H       -2.1337645417   -0.8975213442    3.9220652689
19   
torsion grid (150,)
C        1.8552420050   -1.1642346442   -0.0164200158
C        3.0082736400   -1.5950838341    2.1012235210
C        0.8011305375   -0.5745862176    0.6788789334
C        1.9503292483   -1.0118336704    2.7975686751
C        2.9376986273   -1.6637627027    0.7095824727
C        0.8647228509   -0.5185012384    2.0731282777
N       -1.7781285517   -0.9599862068    2.8114865656
N        4.0585364333   -2.2903591027   -0.0271863939
O        3.9789719126   -2.3296857252   -1.2574425104
O        5.0005132533   -2.7300941426    0.6368894126
O       -1.0109249604    1.3935241296    2.2075668208
O       -0.0934346022    0.3889382759    4.3659633850
S       -0.4826425562    0.2615634108    2.9594506244
Cl      -1.1753184395   -2.6197575238    3.0568754145
H        1.8519272464   -1.2360281475   -1.0975251706
H        3.8739973286   -1.9933939094    2.6167969330
H       -0.0532214544   -0.1632628162    0.1508931357
H        1.9595825061   -0.9391388966    3.8797517442
H       -2.3207115773   -0.8159459822    3.6745800107
19   
torsion grid (165,)
C        1.8245021138   -1.1682950783   -0.0338428284
C        3.0164486023   -1.5930320246    2.0639211347
C        0.7815815825   -0.5802072092    0.6789710374
C        1.9694622078   -1.0097464392    2.7773419157
C        2.9211019665   -1.6634516518    0.6740694989
C        0.8705180592   -0.5191771995    2.0717135328
N       -1.7411804713   -0.9521551253    2.7379046507
N        4.0295964928   -2.2888092605   -0.0820709691
O        3.9266940312   -2.3322775277   -1.3105288180
O        4.9840563565   -2.7266895035    0.5651047395
O       -0.9923491482    1.4107619497    2.2653193775
O       -0.0774326020    0.3326663545    4.3882591615
S       -0.4667113197    0.2517684392    2.9802746921
Cl      -1.2321578367   -2.5748881278    3.2643768867
H        1.8017686228   -1.2432912618   -1.1144802495
H        3.8913896733   -1.9898009519    2.5649682743
H       -0.0846841709   -0.1751925128    0.1659733072
H        1.9966209134   -0.9361396387    3.8592019422
H       -2.4526341870   -0.7048429514    3.4394503671
19   
torsion grid (180,)
C        1.8350087693   -1.1483026952   -0.0255701794
C        3.0185482430   -1.5774320413    2.0770084833
C        0.7801025267   -0.5795961688    0.6845615308
C        1.9590694006   -1.0110675456    2.7865930086
C        2.9330237324   -1.6355383800    0.6863173315
C        0.8592652760   -0.5264494641    2.0783784307
N       -1.7212669563   -1.0103012374    2.7133083561
N        4.0547851679   -2.2382191461   -0.0682905606
O        3.9590636588   -2.2778810946   -1.2975429659
O        5.0151512751   -2.6600331630    0.5807714280
O       -1.0496020866    1.3572851502    2.2585145136
O       -0.1098600822    0.3145305098    4.3907813886
S       -0.4954438678    0.2167577855    2.9846883419
Cl      -1.3312604794   -2.5486830382    3.5011903996
H        1.8206604495   -1.2150450014   -1.1068816818
H        3.8945454055   -1.9681398898    2.5810598461
H       -0.0884599825   -0.1826602755    0.1694584573
H        1.9794819741   -0.9433811304    3.8690032626
H       -2.5575921935   -0.6693557692    3.2050884313
