21   
torsion grid (-165,)
C        1.9016392348   -0.9230305999   -0.0328984536
C        0.7796608423   -0.5031564037    0.7045829808
C        2.9712005438   -1.5357803591    0.5916119940
C        0.7911539340   -0.7054676437    2.0882041323
C        2.9716191361   -1.7391179293    1.9750179499
C        1.8763944599   -1.3145160618    2.7221022423
C       -0.3343770068    0.1569971017   -0.0714671646
C       -2.8474417571    0.5783238494   -0.4216822711
C       -2.3499439874    1.6240229436    0.5210098813
C       -1.6978440722    0.2305965188    0.5117828676
O       -0.0804750927    0.6217870222   -1.1792878113
F        4.0393642334   -1.9501472595   -0.1154129522
F       -0.2190528983   -0.2979736032    2.8827695256
F        4.0077549339   -2.3269700032    2.5818155690
F        1.8708663119   -1.4852824994    4.0514361416
H        1.9160530622   -0.7538549186   -1.1044185751
H       -3.7972695751    0.0975246404   -0.2095137373
H       -2.5885425342    0.6827613862   -1.4697928886
H       -1.7504646076    2.4294548591    0.1092990016
H       -2.9369298370    1.8741305228    1.3990003290
H       -1.9125841692   -0.4005990610    1.3636371457
21   
torsion grid (-150,)
C        1.8932284994   -0.8730496853   -0.0228579322
C        0.8052405719   -0.4380877920    0.7554505914
C        2.9426223896   -1.5660954396    0.5500909083
C        0.8323366649   -0.7063481170    2.1274424539
C        2.9573555336   -1.8362328892    1.9217730640
C        1.8977106615   -1.3960394294    2.7101964330
C       -0.2911752350    0.3055239917    0.0311184283
C       -2.8155285819    0.4502568104   -0.3976773758
C       -2.4499800142    1.6477184807    0.4116174584
C       -1.6609095212    0.3463440685    0.6006608083
O       -0.0284409537    0.8296939728   -1.0481317115
F        3.9765476852   -1.9959975548   -0.1973886979
F       -0.1415499932   -0.2863570556    2.9607612436
F        3.9741512495   -2.5019006096    2.4788851474
F        1.9084119891   -1.6289593762    4.0300024479
H        1.8979302893   -0.6526258022   -1.0850455783
H       -3.7160131542   -0.0999889792   -0.1435467059
H       -2.5316551705    0.4467311842   -1.4446624989
H       -1.9164761726    2.4483965968   -0.0899635702
H       -3.0886629068    1.9455454324    1.2370977383
H       -1.8457666560   -0.2070007890    1.5106358642
21   
torsion grid (-135,)
C        2.0269068300   -0.5767370169    0.0374519106
C        0.7893816632   -0.5454947934    0.7055179631
C        3.1264077598   -1.1859379209    0.6116265723
C        0.7018323212   -1.1693438475    1.9538417533
C        3.0314327692   -1.8014855403    1.8634564139
C        1.8092406490   -1.7954410587    2.5300474988
C       -0.3484787597    0.1454430873   -0.0063410415
C       -2.9006497322    0.3480000547    0.1897536859
C       -2.3608492233    1.7385318909    0.1290093601
C       -1.5100988339    0.6481808622    0.7692399377
O       -0.2746346242    0.2925099953   -1.2232891951
F        4.3149131014   -1.2035666945   -0.0205435585
F       -0.4533790156   -1.2304277088    2.6468355523
F        4.0928406373   -2.3958684067    2.4179939873
F        1.6977613414   -2.3991560615    3.7214158092
H        2.1047336705   -0.1161912125   -0.9417251097
H       -3.6790950192    0.1098548053    0.9075035189
H       -2.9127610277   -0.2262144336   -0.7309035427
H       -2.0157804034    2.0998794007   -0.8337553692
H       -2.7660655620    2.4857152832    0.8041207457
H       -1.4303754062    0.6470817775    1.8477938336
21   
torsion grid (-120,)
C        2.0574671662   -0.5429007237    0.0479836311
C        0.8121409880   -0.4615259218    0.6972422949
C        3.1095702762   -1.2335153365    0.6184410113
C        0.6680053204   -1.1159059489    1.9247781658
C        2.9577875802   -1.8812597796    1.8483915645
C        1.7275077825   -1.8232727552    2.4971462591
C       -0.2745450813    0.3111832789   -0.0104016947
C       -2.8201554501    0.2474778610    0.2738079845
C       -2.4551354726    1.6845493173    0.0597604975
C       -1.4596596949    0.7786620166    0.7543641448
O       -0.1588187004    0.5165423835   -1.2149872126
F        4.3055674767   -1.3016052676    0.0040366498
F       -0.4977259270   -1.1265297353    2.6014111922
F        3.9730393122   -2.5542960070    2.3993349925
F        1.5618087905   -2.4538906216    3.6681347885
H        2.1780450117   -0.0565812504   -0.9143217505
H       -3.5361940521   -0.0132808727    1.0465154490
H       -2.8000344586   -0.4108643770   -0.5888252038
H       -2.1958864336    1.9912660507   -0.9477530451
H       -2.9340800618    2.4371826302    0.6782452343
H       -1.3474473632    0.8735883001    1.8269577293
21   
torsion grid (-105,)
C        2.0618393040   -0.5013089481    0.0437595815
C        0.8226852941   -0.3583461061    0.6950743032
C        3.0665065369   -1.2752598213    0.5912319404
C        0.6386591783   -1.0320027821    1.9073243132
C        2.8734827736   -1.9449917590    1.8036061530
C        1.6509191840   -1.8219346535    2.4573265252
C       -0.2114655149    0.4997465477    0.0055569568
C       -2.7236492190    0.1519956889    0.3420072987
C       -2.5470682744    1.6088099237    0.0068810937
C       -1.4424577363    0.8954882756    0.7428183188
O       -0.0338692088    0.8006936401   -1.1702587795
F        4.2547964756   -1.4053277103   -0.0281644351
F       -0.5184430235   -0.9776925352    2.5953863633
F        3.8424673781   -2.6978921167    2.3337704785
F        1.4468697774   -2.4671170388    3.6142709356
H        2.2133854213    0.0047378468   -0.9039308832
H       -3.3913241873   -0.1343438726    1.1481457404
H       -2.6402659003   -0.5648527924   -0.4691086460
H       -2.3480198579    1.8669330294   -1.0275581299
H       -3.1181606235    2.3382083152    0.5728150632
H       -1.3303235070    1.0752777303    1.8058116040
21   
torsion grid (-90,)
C        2.0618217044   -0.4910176914    0.0667482688
C        0.8492935885   -0.2639108651    0.7444942568
C        3.0103834130   -1.3551841080    0.5770112735
C        0.6397128727   -0.9382507813    1.9528226907
C        2.7900975656   -2.0286232399    1.7827517126
C        1.5974253463   -1.8155428806    2.4673901920
C       -0.1268686330    0.6845097760    0.0873622383
C       -2.5915251381    0.0454694245    0.3885296825
C       -2.5865756592    1.4938965255   -0.0470994475
C       -1.4308758671    0.9697097893    0.7557307187
O        0.1416302590    1.1255431594   -1.0242762457
F        4.1696034851   -1.5716388811   -0.0724801335
F       -0.4837650584   -0.7898306639    2.6806400565
F        3.7057661659   -2.8666923642    2.2784088973
F        1.3708298934   -2.4543833888    3.6236482513
H        2.2355473126    0.0235065415   -0.8725756237
H       -3.2457608693   -0.2668353497    1.1960400461
H       -2.4079646514   -0.7077471860   -0.3722890838
H       -2.3962864130    1.7058078041   -1.0937155000
H       -3.2645858935    2.1800396084    0.4509141575
H       -1.3716031255    1.2277038145    1.8080853578
21   
torsion grid (-75,)
C        2.0341988268   -0.4683938723    0.0824517743
C        0.8597248939   -0.1712673509    0.7983569299
C        2.9257351603   -1.4169876175    0.5440358845
C        0.6347364937   -0.8528270206    1.9995972433
C        2.6881307919   -2.1001072909    1.7410019498
C        1.5370649368   -1.8106002752    2.4680199780
C       -0.0645978957    0.8607054105    0.1957129077
C       -2.4739124844   -0.0348417893    0.4449420622
C       -2.5951688773    1.3691523309   -0.1208553208
C       -1.4384533176    1.0297043416    0.7706933974
O        0.2953811972    1.4577776604   -0.8106654803
F        4.0447776671   -1.7078193636   -0.1455561252
F       -0.4427356405   -0.6177543432    2.7717570086
F        3.5500714320   -3.0175879357    2.1902154566
F        1.3009344947   -2.4496415912    3.6221872339
H        2.2252883604    0.0594886983   -0.8460032549
H       -3.1391391770   -0.3455879971    1.2440640706
H       -2.1857378305   -0.8259979648   -0.2420521919
H       -2.3789377258    1.5106563028   -1.1746946485
H       -3.3661119977    2.0196344609    0.2804944996
H       -1.4559786403    1.3865053007    1.7970634166
21   
torsion grid (-60,)
C        1.9735016680   -0.4737791042    0.0908412637
C        0.8375198875   -0.1261601025    0.8434445322
C        2.8042095506   -1.4995137766    0.5006757697
C        0.5911425662   -0.8261605554    2.0287801487
C        2.5449018085   -2.2025436487    1.6813629389
C        1.4347967338   -1.8566823395    2.4477573459
C       -0.0313932911    0.9862032166    0.3107896544
C       -2.4052034634   -0.0731324127    0.5202180549
C       -2.5716663525    1.2453376273   -0.2190981766
C       -1.4592924202    1.0796140739    0.7758556036
O        0.4191588683    1.7294671242   -0.5495648064
F        3.8835007230   -1.8465480117   -0.2252976146
F       -0.4439368051   -0.5242347829    2.8340627191
F        3.3501576816   -3.1919949343    2.0806534210
F        1.1862129000   -2.5096499537    3.5913301466
H        2.1868451663    0.0737120026   -0.8212521333
H       -3.1102876849   -0.3330534527    1.3032169759
H       -2.0309622617   -0.9187917366   -0.0510850538
H       -2.2988299804    1.2770919206   -1.2692596926
H       -3.4026061531    1.8888431810    0.0529126249
H       -1.5652480850    1.5703008355    1.7412973802
21   
torsion grid (-45,)
C        1.9550465362   -0.4094636122    0.0938282620
C        0.8404293887   -0.0673745042    0.8790391174
C        2.7635263497   -1.4741273386    0.4474987122
C        0.5942654091   -0.8056868184    2.0402581216
C        2.5038487922   -2.2171222604    1.6031844361
C        1.4170612853   -1.8730543221    2.4039308174
C       -0.0053176810    1.0938262000    0.4232254907
C       -2.3502131743   -0.0839576710    0.6531361967
C       -2.5041901149    1.0777447043   -0.3099014387
C       -1.4673585253    1.1314368579    0.7868785146
O        0.5005059740    1.9565910239   -0.2798218551
F        3.8212182514   -1.8196873180   -0.3102425085
F       -0.4146430643   -0.4980528884    2.8750707012
F        3.2889546026   -3.2425805334    1.9486478624
F        1.1738110662   -2.5621950902    3.5271430907
H        2.1733298998    0.1708760561   -0.7965607087
H       -3.1104471552   -0.2454185049    1.4106896721
H       -1.9039618486   -0.9951445122    0.2631192010
H       -2.1494828236    0.9455159400   -1.3276123934
H       -3.3710327694    1.7242879654   -0.2157517178
H       -1.6739155526    1.7982535702    1.6216678285
21   
torsion grid (-30,)
C        1.9049067390   -0.3705587705    0.0834387632
C        0.8222979212   -0.0354995934    0.9141160625
C        2.6931748810   -1.4712366747    0.3687200183
C        0.5886197076   -0.8136978213    2.0505989251
C        2.4462855119   -2.2540533970    1.5003122837
C        1.3932258611   -1.9150458684    2.3473269400
C        0.0060930132    1.1782373377    0.5498078027
C       -2.3353813006   -0.0488229327    0.7666784325
C       -2.3879886088    0.9148786939   -0.3925528822
C       -1.4765180762    1.1904269548    0.7964240710
O        0.5642104555    2.1304256103    0.0234522650
F        3.7191177695   -1.8117488278   -0.4336349445
F       -0.3870991555   -0.5096345610    2.9253159402
F        3.2137582570   -3.3124124529    1.7811602242
F        1.1660228426   -2.6416837097    3.4500338446
H        2.1195862695    0.2421052571   -0.7859425446
H       -3.1750238423   -0.0936075436    1.4530470116
H       -1.8470496339   -1.0037896828    0.5952248961
H       -1.9194006343    0.6144921911   -1.3251959963
H       -3.2548687120    1.5571325683   -0.5110855244
H       -1.7854910502    2.0082417746    1.4421573399
21   
torsion grid (-15,)
C        1.8367455031   -0.3254726225    0.0682740773
C        0.7971804264   -0.0019851617    0.9547835604
C        2.6133018592   -1.4518888148    0.2812238689
C        0.5954905921   -0.8144239708    2.0716572974
C        2.3978671610   -2.2698611911    1.3936760579
C        1.3887566575   -1.9406909070    2.2965015804
C       -0.0009205637    1.2507394717    0.6861791682
C       -2.3384241090   -0.0157848011    0.8568432703
C       -2.2533692889    0.7402132223   -0.4368223311
C       -1.4916396413    1.2344705666    0.8003851600
O        0.5902006695    2.2616894506    0.3331167508
F        3.5983432019   -1.7811322252   -0.5752632500
F       -0.3386705108   -0.5184667312    2.9944814517
F        3.1552690488   -3.3519636463    1.6049398284
F        1.1931187803   -2.7011287540    3.3822781839
H        2.0340189237    0.3140875238   -0.7857680839
H       -3.2532204563    0.0395924249    1.4384459479
H       -1.8370112052   -0.9765401106    0.9058693316
H       -1.6692742050    0.3031073712   -1.2416015701
H       -3.0933002663    1.3443867332   -0.7642286275
H       -1.8865416364    2.1418697881    1.2469653886
21   
torsion grid (0,)
C        2.4464838807   -0.9795396137   -0.0311623021
C        1.1511878136   -0.5027469160    0.2204999116
C        3.1461262432   -1.6554828545    0.9555214229
C        0.6061344069   -0.6875733535    1.4899678533
C        2.5907715973   -1.8497004532    2.2227806215
C        1.3166712249   -1.3530039663    2.4904267516
C        0.4416460440    0.2614091024   -0.8752683482
C       -1.6812375593   -1.3537319747   -0.7827377015
C       -0.9646604281   -1.5115042829   -2.0867646122
C       -0.9079147357   -0.1713619014   -1.3296879262
O        1.0243447544    1.1908991517   -1.4161019682
F        4.3816482093   -2.1336097808    0.7164113006
F       -0.6071233559   -0.1940451580    1.8058101903
F        3.2722039753   -2.4921789720    3.1785752197
F        0.7843700266   -1.5081783999    3.7101316719
H        2.9073916432   -0.8142730067   -0.9995014400
H       -2.7625120832   -1.2589448239   -0.7887345115
H       -1.2853945455   -1.8820894129    0.0765755256
H       -0.0611958946   -2.1142553578   -2.0973946839
H       -1.5253363387   -1.5157843530   -3.0158506088
H       -1.4708901889    0.6364028526   -1.7861231668
21   
torsion grid (15,)
C        2.3853105466   -0.9556703499   -0.0512228672
C        1.1067019782   -0.4601150393    0.2415952190
C        3.0944728103   -1.6634142422    0.9072975332
C        0.5872658028   -0.6629763459    1.5172280412
C        2.5646845959   -1.8741973767    2.1825006413
C        1.3055788137   -1.3620530588    2.4888469868
C        0.3786716715    0.3462635869   -0.8164898918
C       -1.7140887366   -1.3012407508   -0.8001061326
C       -0.8607833806   -1.5911909124   -1.9921817817
C       -0.8866558562   -0.1731863146   -1.3926517307
O        0.8949947822    1.3740591976   -1.2307568309
F        4.3156676283   -2.1574993245    0.6298562503
F       -0.6150183420   -0.1596137509    1.8631666171
F        3.2561284676   -2.5487335909    3.1091690622
F        0.7949852154   -1.5366044664    3.7151283210
H        2.8303341985   -0.7832852113   -1.0258303973
H       -2.7874542978   -1.2156698363   -0.9364203949
H       -1.4174706459   -1.7178598054    0.1545859843
H        0.0399916823   -2.1776010974   -1.8388091715
H       -1.3199148106   -1.7044121552   -2.9688903211
H       -1.4078903771    0.5750480434   -1.9809910504
21   
torsion grid (30,)
C        2.3336396511   -0.9402396304   -0.0838489738
C        1.0711203648   -0.4311713108    0.2494933382
C        3.0591723239   -1.6651221897    0.8503138771
C        0.5801372566   -0.6465117158    1.5328045811
C        2.5593158798   -1.8859905463    2.1356143457
C        1.3125501815   -1.3667896734    2.4781281037
C        0.3190314210    0.4041784378   -0.7735038592
C       -1.7497856925   -1.2475500744   -0.8489982662
C       -0.7959195770   -1.6545863196   -1.9240769993
C       -0.8463381411   -0.1883004002   -1.4721592746
O        0.7418262054    1.5165942763   -1.0501384622
F        4.2678578037   -2.1681663786    0.5362578811
F       -0.6147663386   -0.1432756759    1.9069194749
F        3.2664332783   -2.5795995584    3.0365513136
F        0.8265955186   -1.5568069747    3.7119380523
H        2.7570352366   -0.7683196225   -1.0682670038
H       -2.8040452382   -1.1607268475   -1.0913500268
H       -1.5478798722   -1.5629372813    0.1672419014
H        0.0753085131   -2.2343647301   -1.6364302298
H       -1.1718070181   -1.8565005324   -2.9219364881
H       -1.3115855947    0.5126931776   -2.1576925948
21   
torsion grid (45,)
C        1.4915152298   -0.8932870137   -0.1206081786
C        0.3743923199   -0.9917742769    0.7203128128
C        2.7599095424   -0.7490682824    0.4218284409
C        0.5697922479   -0.9711322950    2.0976170976
C        2.9509164196   -0.7198065606    1.8051025296
C        1.8465414577   -0.8384885913    2.6463663195
C       -0.9956608703   -1.1992937467    0.0987806007
C       -1.5253351168    1.3268292112   -0.2080445478
C       -1.9816442394    1.0166529118    1.1799262260
C       -1.9870135297   -0.0972442908    0.1409647790
O       -1.2202536155   -2.2451980003   -0.4920601759
F        3.8375662405   -0.6401927264   -0.3777607098
F       -0.4716971550   -1.1058024170    2.9445904241
F        4.1777185579   -0.5896827618    2.3251859970
F        2.0163253572   -0.8308069889    3.9752055146
H        1.3754805235   -0.9355989783   -1.1988167982
H       -2.1746630088    1.8874448901   -0.8727537980
H       -0.4628326188    1.4785464996   -0.3702420358
H       -1.2408475886    0.9833625049    1.9692177996
H       -2.9600107352    1.3628314015    1.4973920769
H       -2.9507957299   -0.3982948263   -0.2568020505
21   
torsion grid (60,)
C        1.5651970739   -0.9024278855   -0.1097985498
C        0.4231568787   -0.9705069700    0.7014745001
C        2.8210711681   -0.7783759753    0.4638627574
C        0.5833875713   -0.9496586000    2.0848970323
C        2.9758490367   -0.7463540866    1.8518765457
C        1.8484008797   -0.8417549896    2.6651274443
C       -0.9275733899   -1.1448027279    0.0380148266
C       -1.6493006921    1.3143325072   -0.2491560074
C       -1.9071430799    1.0475728234    1.2007637052
C       -1.9788232819   -0.1119195696    0.2261044299
O       -1.1003026835   -2.1013937057   -0.7036457157
F        3.9216120422   -0.6936334751   -0.3068641397
F       -0.4774257392   -1.0706758894    2.9078857724
F        4.1904794692   -0.6381162187    2.4034734755
F        1.9852351299   -0.8378713137    3.9979265694
H        1.4724651192   -0.9525648714   -1.1898136032
H       -2.4069844385    1.8053111636   -0.8511040900
H       -0.6253043898    1.5125474473   -0.5514099152
H       -1.0681937032    1.1030259633    1.8837895338
H       -2.8535687235    1.3626653260    1.6285676749
H       -2.9631991474   -0.4752757116   -0.0512409323
21   
torsion grid (75,)
C        1.5748570582   -0.9431422846   -0.1068092756
C        0.4008538990   -0.9478669715    0.6622999364
C        2.8135706085   -0.8728827602    0.5090599530
C        0.5127299693   -0.9236187972    2.0522359613
C        2.9199586566   -0.8352920104    1.9018546349
C        1.7610472124   -0.8707714390    2.6746819664
C       -0.9234311918   -1.0577981181   -0.0570626551
C       -1.8719315339    1.3191701511   -0.3204465574
C       -1.9166895841    1.0993801569    1.1636131987
C       -2.0238223755   -0.0993993510    0.2492146794
O       -1.0517798534   -1.9071803453   -0.9277430063
F        3.9441046548   -0.8470240653   -0.2213422926
F       -0.5757536950   -0.9955683900    2.8421232888
F        4.1173798475   -0.7795043074    2.4960527235
F        1.8517156896   -0.8652358383    4.0114812356
H        1.5130676319   -1.0002107009   -1.1886114255
H       -2.7356938113    1.7297430143   -0.8331363758
H       -0.9143011188    1.5789054621   -0.7623827026
H       -0.9979537787    1.2499743738    1.7190652847
H       -2.8163243381    1.3725046114    1.7059976926
H       -3.0050271961   -0.5413646223    0.1061929484
21   
torsion grid (90,)
C        1.6459878566   -0.9742263522   -0.0850990332
C        0.4452008353   -0.9280150654    0.6420835380
C        2.8638141838   -0.9531505835    0.5723171696
C        0.5103592429   -0.9041322622    2.0366758429
C        2.9229279038   -0.9147028101    1.9683245887
C        1.7379929240   -0.8997380934    2.7011160051
C       -0.8502719846   -0.9694319505   -0.1295921045
C       -2.0714945746    1.2918948752   -0.3606176676
C       -1.8782695698    1.1431087127    1.1255113194
C       -1.9988039287   -0.0966121836    0.2749610849
O       -0.9316176805   -1.6973211219   -1.1090790723
F        4.0197852903   -0.9751673686   -0.1172720092
F       -0.6022989537   -0.9315946338    2.7930661419
F        4.0998903411   -0.9046866330    2.6033906931
F        1.7832859803   -0.8936020588    4.0403216761
H        1.6150649446   -1.0292065371   -1.1682996920
H       -3.0357525531    1.6039591670   -0.7486161919
H       -1.2200518005    1.6179377969   -0.9510881157
H       -0.9030177204    1.3995744243    1.5268363872
H       -2.7076266343    1.3685969206    1.7883914761
H       -2.9404678464   -0.6378320943    0.2953775193
21   
torsion grid (105,)
C        1.7069910661   -0.9737546543   -0.0776288756
C        0.4902185781   -0.8902226000    0.6204958649
C        2.9079794161   -1.0074579332    0.6078959148
C        0.5231298365   -0.8823449719    2.0174636328
C        2.9352730811   -0.9855798072    2.0055368521
C        1.7343187551   -0.9310358091    2.7096840930
C       -0.7809350937   -0.8549360074   -0.1882986696
C       -2.2798821290    1.2536903226   -0.3652134484
C       -1.8343985535    1.2181171607    1.0784418226
C       -1.9657436736   -0.0711975869    0.3083789487
O       -0.8161658558   -1.4402307727   -1.2612093221
F        4.0788596087   -1.0661353152   -0.0538064660
F       -0.6044979536   -0.8726951931    2.7507386965
F        4.0958158166   -1.0266035079    2.6682776795
F        1.7479604851   -0.9381330796    4.0495962643
H        1.6967127414   -1.0111713636   -1.1619549037
H       -3.3207027041    1.4615675666   -0.5923600213
H       -1.5757717256    1.6198179908   -1.1065913799
H       -0.8335113406    1.5800969890    1.2967835834
H       -2.5615099942    1.4157250390    1.8596599771
H       -2.8220467517   -0.7045766800    0.5272105190
21   
torsion grid (120,)
C        1.7550676264   -0.9955929519   -0.0450638584
C        0.5194584256   -0.8813027920    0.6156800251
C        2.9307437343   -1.0975048535    0.6754267790
C        0.5096102717   -0.9087071031    2.0134860573
C        2.9146605088   -1.1110481520    2.0735492289
C        1.6953231010   -1.0226085673    2.7412593618
C       -0.7176790702   -0.7533813090   -0.2361967715
C       -2.4595048833    1.1704698277   -0.3701846480
C       -1.7982580456    1.2957528987    0.9857656327
C       -1.9309313045   -0.0592402821    0.3285305485
O       -0.6871880598   -1.1558814103   -1.3901546770
F        4.1189697228   -1.1882344625    0.0491557380
F       -0.6368062789   -0.8653263545    2.7160216680
F        4.0507839387   -1.2151766285    2.7703408806
F        1.6659419572   -1.0586357977    4.0805257780
H        1.7755837651   -0.9998920153   -1.1298531237
H       -3.5366278979    1.2885265936   -0.4368658320
H       -1.9137238042    1.5225944912   -1.2402083052
H       -0.8102808272    1.7480119892    1.0183314287
H       -2.4140926055    1.5007439769    1.8557022065
H       -2.6591581922   -0.7442856158    0.7573670230
21   
torsion grid (135,)
C        1.8016489926   -0.9857928338   -0.0352934238
C        0.5605402506   -0.8383819713    0.6098002883
C        2.9597030372   -1.1741174889    0.6947867437
C        0.5309748861   -0.9147477526    2.0061133323
C        2.9227855035   -1.2387379373    2.0911851428
C        1.6995739614   -1.1120666615    2.7443296486
C       -0.6481765245   -0.6064221065   -0.2644559586
C       -2.6231444430    1.0749753282   -0.3562546435
C       -1.8098150099    1.3954085121    0.8776953152
C       -1.8912552922   -0.0306217719    0.3550610156
O       -0.5492822801   -0.7923262694   -1.4695313896
F        4.1510811839   -1.3006721401    0.0807259473
F       -0.6169892645   -0.8285299842    2.7036625410
F        4.0416962870   -1.4242922465    2.7985656566
F        1.6480122860   -1.1886955361    4.0813282928
H        1.8366626340   -0.9441586318   -1.1188897626
H       -3.7059122611    1.0940379806   -0.2782695943
H       -2.2322554081    1.3841296759   -1.3203321414
H       -0.8750371462    1.9317271485    0.7358173819
H       -2.3227873782    1.6209720630    1.8072848538
H       -2.4616338372   -0.7265508221    0.9646237217
21   
torsion grid (150,)
C        1.8573896041   -0.9870566335   -0.0400737195
C        0.6283471595   -0.7595858225    0.6067370447
C        2.9949962875   -1.2900391804    0.6819721876
C        0.5950389788   -0.8640865451    2.0018699369
C        2.9532115109   -1.3845952464    2.0766284767
C        1.7450227008   -1.1702680133    2.7333401173
C       -0.5492253305   -0.4087685366   -0.2737671565
C       -2.7441703322    0.9583712249   -0.3638065325
C       -1.9118789879    1.4726939606    0.7828324499
C       -1.8391956986    0.0018790140    0.3634070386
O       -0.3810606321   -0.3601015687   -1.4861910982
F        4.1714948555   -1.5016864503    0.0626062017
F       -0.5336493744   -0.6837522565    2.7139300714
F        4.0526946041   -1.6779606069    2.7777361159
F        1.6878628289   -1.2627352850    4.0692700654
H        1.8963582112   -0.9134562798   -1.1218533882
H       -3.8130577709    0.8458498394   -0.2098591001
H       -2.4518592561    1.2358756848   -1.3709646769
H       -1.0597694955    2.1031497642    0.5441658594
H       -2.3901837582    1.6925413476    1.7319854880
H       -2.2691346607   -0.7023699818    1.0680280180
21   
torsion grid (165,)
C        1.8940748533   -0.9942591997   -0.0096680936
C        0.6957029465   -0.6610738366    0.6487942283
C        3.0004550704   -1.4204914441    0.6986256227
C        0.6638684615   -0.7731849021    2.0432711012
C        2.9594298238   -1.5264724539    2.0924349741
C        1.7844100870   -1.1972965736    2.7616058109
C       -0.4473546739   -0.1908446673   -0.2207300553
C       -2.8139647119    0.8287241863   -0.3795053454
C       -2.0749065200    1.5191268175    0.7318461408
C       -1.7835453343    0.0477662495    0.3941540740
O       -0.2213105975    0.0603687499   -1.3995862621
F        4.1445846368   -1.7433593469    0.0666299676
F       -0.4290021959   -0.4680168867    2.7693478029
F        4.0292166950   -1.9357386193    2.7814467278
F        1.7319319625   -1.2870075786    4.0979390741
H        1.9353681214   -0.9037471741   -1.0900677190
H       -3.8538943277    0.5637687212   -0.2147678898
H       -2.5559290805    1.0900668111   -1.4000357470
H       -1.3159940571    2.2463087078    0.4589809269
H       -2.5811746633    1.7112694146    1.6723557704
H       -2.1142857555   -0.6698550056    1.1361576327
21   
torsion grid (180,)
C        1.9200037269   -0.9735943118   -0.0229612731
C        0.7613006152   -0.5792537612    0.6708561765
C        3.0045298503   -1.5020144643    0.6503517493
C        0.7489184059   -0.7249652006    2.0619129590
C        2.9823076088   -1.6463502914    2.0410766607
C        1.8485961654   -1.2497893620    2.7446088057
C       -0.3639462559   -0.0055416890   -0.1566682014
C       -2.8295374712    0.7015953878   -0.4104237511
C       -2.2078201797    1.5704034111    0.6393726649
C       -1.7197343236    0.1238445776    0.4395235251
O       -0.1166341883    0.3787199487   -1.2956143234
F        4.1093612836   -1.8892811443   -0.0144782882
F       -0.3011213166   -0.3459258591    2.8169363663
F        4.0322377292   -2.1528657873    2.6954687566
F        1.8183159785   -1.3679529290    4.0793476087
H        1.9501750061   -0.8502408747   -1.1004487509
H       -3.8270244183    0.3123392115   -0.2313894922
H       -2.5806139430    0.9055322950   -1.4461499597
H       -1.5348847561    2.3564561890    0.3115723289
H       -2.7514444374    1.7737022172    1.5564283822
H       -1.9805183497   -0.5694341305    1.2294556067
