54   
torsion grid (-90,)
C       -3.3506436720    1.2219313617    2.9772323880
C       -3.5763444135    2.1584755954    4.0543818087
C       -2.8171949626    3.2908741530    3.9115595904
C       -3.9520332672   -0.0822875666    2.7843150850
C       -2.4335915373    1.6770711815    2.0498868191
C       -2.5864093349   -0.3075205637    0.6920435152
C       -3.0732545854    6.4000633553    3.1566556777
C       -2.1073098328    2.8387829686   -3.1195695257
C       -0.8720313091    2.9915921005   -2.1868247188
C       -2.7492625887    1.9004575927   -2.0586000733
C       -4.5872719344   -3.2870087204    1.9527468126
C       -5.3912803630    6.7263942560    3.1683359695
C       -5.0485843108    5.4631785590    3.9792976907
C       -1.7478254488    2.4698694967   -1.0130859746
C       -5.6529447645   -2.2958943634    1.0831911722
C       -4.1804884135   -2.0470894415    1.3402904906
C       -4.5475246194    1.8957283934    5.1734908455
C       -6.9539859618   -2.6249896898    1.8394432629
C       -2.8006897092    4.5453736590    4.7424882488
C       -1.0884407716    1.5142058758   -0.0284780035
N       -3.5318061372   -0.7613932665    1.6176719271
N       -2.0429872221    0.9549031771    0.9470436704
N       -4.1380910351    6.9395813648    2.4434882765
N       -3.6102777203    5.6250907996    4.1812070517
O       -4.7757895851   -0.6114859400    3.5305625703
O       -2.2461172733   -0.9599472150   -0.2910271689
O       -1.8798906704    6.5561239900    2.9204956903
S       -1.8209280412    3.2515104750    2.4502796034
H       -1.9346494754    2.4257907085   -4.1171146160
H       -2.6565853115    3.7797761484   -3.2195007053
H       -0.0824077501    2.2770556196   -2.4445534656
H       -0.4266487572    3.9847056558   -2.0800700691
H       -3.8155506375    2.0232674393   -1.8482923515
H       -2.5509502638    0.8455178654   -2.2644475878
H       -4.8935057518   -3.3190711201    2.9899045635
H       -4.1888480848   -4.2100549495    1.5382347631
H       -6.2304188230    6.5665352872    2.4869498018
H       -5.6269442225    7.5660435035    3.8363216057
H       -5.5845095835    5.4174031067    4.9313868185
H       -5.2673645535    4.5516509754    3.4056498749
H       -2.1957273344    3.3134332959   -0.4777563159
H       -5.7688366566   -2.6171097003    0.0467544675
H       -3.7185935866   -2.3028610990    0.3918146919
H       -4.2794278829    0.9828837211    5.7121361072
H       -4.5806396107    2.7257873131    5.8823700340
H       -5.5540595378    1.7316839993    4.7781920036
H       -6.8881646661   -2.4276299734    2.9114585950
H       -7.1908564811   -3.6795240975    1.6806011591
H       -7.7978024587   -2.0308575343    1.4602624345
H       -3.1650357064    4.3261767056    5.7489095187
H       -1.7861610034    4.9379091950    4.8396144493
H       -0.6477292590    0.6684644450   -0.5555804989
H       -0.2934462114    2.0177325017    0.5329171479
H       -3.9570251341    7.8140836224    1.9665487364
54   
torsion grid (-75,)
C       -3.3366914909    1.2253358034    3.0006628152
C       -3.5680265307    2.1627652017    4.0760665890
C       -2.8107758199    3.2964263344    3.9336078008
C       -3.9391795913   -0.0779553971    2.8058305699
C       -2.4180893235    1.6814373840    2.0756920045
C       -2.5624109123   -0.3068254586    0.7226922775
C       -3.0804227262    6.4042802313    3.1774629504
C       -2.1016167639    2.8319457153   -3.0962122691
C       -0.8668543021    2.9940654267   -2.1643602457
C       -2.7372623761    1.8917286785   -2.0331403455
C       -4.5918319458   -3.2954962106    1.9950721751
C       -5.3998246230    6.7205741489    3.1895321116
C       -5.0515270133    5.4591133144    4.0008121919
C       -1.7390091321    2.4695562595   -0.9891514368
C       -5.5726688014   -2.3579965809    1.0504910402
C       -4.1289799438   -2.0639879207    1.3752667084
C       -4.5410694214    1.9000614253    5.1935758826
C       -6.8789542271   -2.4122495755    1.8538998545
C       -2.7995744750    4.5513508787    4.7639686270
C       -1.0734267535    1.5203986287   -0.0024473914
N       -3.5092033758   -0.7647253118    1.6475353212
N       -2.0242317746    0.9583086820    0.9752896077
N       -4.1477395517    6.9388677860    2.4642810386
N       -3.6139039291    5.6272804691    4.2023533859
O       -4.7717986136   -0.5986553118    3.5483347777
O       -2.2160497654   -0.9582975815   -0.2585808170
O       -1.8878101958    6.5657207237    2.9412328212
S       -1.8106057543    3.2580590951    2.4748922441
H       -1.9269398032    2.4181276668   -4.0930598016
H       -2.6566834756    3.7693748189   -3.1976308189
H       -0.0731479132    2.2836739018   -2.4209878840
H       -0.4273138016    3.9900165421   -2.0598632754
H       -3.8042347582    2.0082297300   -1.8226968254
H       -2.5324398490    0.8376594320   -2.2369928423
H       -4.9389896983   -3.3074547136    3.0197761818
H       -4.1498300502   -4.2228363497    1.6374921675
H       -6.2384614251    6.5569171669    2.5084318383
H       -5.6388842723    7.5594188663    3.8573139870
H       -5.5870567358    5.4112849791    4.9530200754
H       -5.2664906463    4.5464988143    3.4274450075
H       -2.1919230891    3.3115746217   -0.4555680298
H       -5.6955510040   -2.7116026245    0.0281390150
H       -3.6000196646   -2.3577179423    0.4737381462
H       -4.2755260225    0.9858284395    5.7310478518
H       -4.5731213691    2.7290904162    5.9037187077
H       -5.5475685233    1.7388769033    4.7970092854
H       -6.7346990634   -2.1157025595    2.8934083108
H       -7.2717979565   -3.4320642044    1.8168800007
H       -7.6462260535   -1.7450839688    1.4354649125
H       -3.1628415446    4.3310727835    5.7705574310
H       -1.7867237242    4.9482404979    4.8607990221
H       -0.6277187830    0.6759466141   -0.5273291725
H       -0.2813417539    2.0302513990    0.5573272659
H       -3.9705588754    7.8140454469    1.9871134708
54   
torsion grid (-60,)
C       -3.3308578966    1.1979998601    2.9919862747
C       -3.5600631576    2.1355501986    4.0681537752
C       -2.8140250940    3.2755229603    3.9169026105
C       -3.9326920405   -0.1068896358    2.8020471546
C       -2.4265941967    1.6617329044    2.0572758368
C       -2.5733618354   -0.3275670896    0.7077756466
C       -3.1163177115    6.3822205415    3.1630988198
C       -2.2275708426    2.8141739015   -3.1184701862
C       -0.9767486273    2.9925315337   -2.2113455446
C       -2.8293250709    1.8653800268   -2.0433736837
C       -4.6589631351   -3.2842030088    2.0582192075
C       -5.4381102650    6.6783576015    3.1991613196
C       -5.0705755243    5.4197964343    4.0064377192
C       -1.8182762902    2.4563912793   -1.0192095126
C       -5.4567359248   -2.4570823243    0.9260351116
C       -4.0629598909   -2.1246226941    1.3863340084
C       -4.5181986227    1.8668331420    5.1970581972
C       -6.8152183907   -2.1770045751    1.5722565460
C       -2.8032897761    4.5311857317    4.7462085210
C       -1.1203322364    1.5166182051   -0.0459703641
N       -3.4916007059   -0.8037747022    1.6537776755
N       -2.0430906903    0.9424300401    0.9513792008
N       -4.1955596569    6.9075669952    2.4610110198
N       -3.6324192297    5.6001468031    4.1930150840
O       -4.7710544105   -0.6153422047    3.5467982640
O       -2.2410359696   -0.9731139322   -0.2818670479
O       -1.9277188198    6.5545541443    2.9147530119
S       -1.8291498392    3.2443811131    2.4476805484
H       -2.0672903830    2.4028499654   -4.1187624970
H       -2.7969161440    3.7441807354   -3.2084515708
H       -0.1789944738    2.2927263904   -2.4840126167
H       -0.5483962583    3.9941911840   -2.1152363349
H       -3.8933511123    1.9676615887   -1.8116731954
H       -2.6148211277    0.8141414715   -2.2516012834
H       -5.1126772207   -3.1859375345    3.0353700225
H       -4.1955637988   -4.2472964409    1.8558324314
H       -6.2823500049    6.5076378926    2.5267698664
H       -5.6774320562    7.5149888143    3.8696196444
H       -5.5957089088    5.3672349410    4.9641726750
H       -5.2837290798    4.5054443777    3.4351773608
H       -2.2716367592    3.2922731413   -0.4764404606
H       -5.5185451493   -2.9041476069   -0.0632518721
H       -3.4087611911   -2.5036620752    0.6081017827
H       -4.2389737267    0.9559869844    5.7334005168
H       -4.5487012952    2.6969527546    5.9059937982
H       -5.5276744259    1.6964024538    4.8123965570
H       -6.7072901168   -1.7706528273    2.5781459235
H       -7.3830175710   -3.1114183795    1.6199250438
H       -7.4106762735   -1.4575857779    0.9926645987
H       -3.1532281046    4.3090240499    5.7570852618
H       -1.7925809277    4.9361838453    4.8311328581
H       -0.6738931460    0.6779823923   -0.5794496870
H       -0.3241077014    2.0374416766    0.4976040992
H       -4.0308589427    7.7844897833    1.9825736593
54   
torsion grid (-45,)
C       -3.2455442116    1.2066337058    3.1563421654
C       -3.4684642884    2.1715612352    4.2100412787
C       -2.7400973012    3.3162917997    4.0144226740
C       -3.8400789666   -0.1093550914    3.0153209328
C       -2.3653863873    1.6575602951    2.1926770322
C       -2.5131457574   -0.3684307405    0.9038125712
C       -3.0920316138    6.4044176719    3.1898754652
C       -2.3355017936    2.6606069820   -3.0136200758
C       -1.0582490488    2.8837339547   -2.1545299111
C       -2.8883996356    1.7386786832   -1.8899670876
C       -4.8190330832   -3.1657458794    2.2703507969
C       -5.4170750977    6.6685084858    3.2538641804
C       -5.0197928662    5.4337047976    4.0833669036
C       -1.8527626618    2.3750980208   -0.9189006812
C       -5.2003388536   -2.4680202132    0.9109623578
C       -3.9125153100   -2.1823549307    1.6359402397
C       -4.4022105185    1.9237372741    5.3639529573
C       -6.5153626893   -1.7369898943    1.1574190033
C       -2.7296167292    4.5938262668    4.8096068145
C       -1.1109470164    1.4757415246    0.0601777672
N       -3.3934329224   -0.8383987277    1.8870752763
N       -1.9948220728    0.9149558433    1.0987368918
N       -4.1889829865    6.8982647416    2.4920905155
N       -3.5817832440    5.6381216265    4.2442460774
O       -4.6731181134   -0.5896788358    3.7838302847
O       -2.2002605136   -1.0400986292   -0.0740692728
O       -1.9099424819    6.5893270641    2.9205019935
S       -1.7825907546    3.2582840639    2.5281962163
H       -2.2023704740    2.2198427399   -4.0053303642
H       -2.9203682888    3.5799002558   -3.1137116182
H       -0.2603252606    2.1857721035   -2.4313833698
H       -0.6408112893    3.8933349778   -2.1043586198
H       -3.9456167651    1.8346985534   -1.6263890439
H       -2.6663073543    0.6842012598   -2.0720989552
H       -5.4415759742   -2.8827753900    3.1077705293
H       -4.4422909207   -4.1853846390    2.2992183454
H       -6.2686928588    6.4710220170    2.5982942057
H       -5.6583159884    7.5166455066    3.9090260482
H       -5.5299659467    5.3953044452    5.0498233225
H       -5.2282111660    4.5037903057    3.5359851962
H       -2.2999511325    3.2218879459   -0.3880333819
H       -5.1194285204   -3.0432342462   -0.0071226799
H       -3.1073028541   -2.7020890404    1.1277437774
H       -4.1087264975    1.0257788737    5.9140579846
H       -4.4213611190    2.7691193291    6.0550649842
H       -5.4187155918    1.7414054202    5.0040115299
H       -6.5003029973   -1.2075412434    2.1120865155
H       -7.3375758914   -2.4597333626    1.1734408590
H       -6.7374309990   -0.9994579379    0.3741853564
H       -3.0575503841    4.3947303945    5.8326022640
H       -1.7226401675    5.0131445235    4.8642499768
H       -0.6652987844    0.6294939884   -0.4619928457
H       -0.3088302578    2.0252365617    0.5655630297
H       -4.0437772551    7.7669195450    1.9926898837
54   
torsion grid (-30,)
C       -3.1266716255    1.1883742616    3.3300479548
C       -3.3131628766    2.1757394628    4.3699117767
C       -2.6376677182    3.3371761127    4.0977179270
C       -3.6725547871   -0.1563642776    3.2731284004
C       -2.3200406378    1.6367895058    2.3022654556
C       -2.4620771837   -0.4350027261    1.0879158643
C       -3.1204010491    6.3959702220    3.2115868188
C       -2.5307703374    2.4142259427   -2.9397097158
C       -1.2250665676    2.7160366144   -2.1501304081
C       -3.0055472932    1.5325011900   -1.7499904679
C       -5.2264354524   -2.7711838159    2.1336069251
C       -5.4471872643    6.5886775036    3.3823479512
C       -4.9707973628    5.3880940225    4.2204373004
C       -1.9484699341    2.2445598680   -0.8574943393
C       -4.7425100469   -2.4812941529    0.6949683454
C       -3.8715169143   -2.2058861438    1.8929358834
C       -4.1664238459    1.9322500099    5.5854827756
C       -5.6112215211   -1.3933577935    0.0845778808
C       -2.6227890466    4.6380163585    4.8539133605
C       -1.1411058117    1.4122780990    0.1292099498
N       -3.3281261964   -0.8728523698    2.0965119067
N       -1.9734400307    0.8691895201    1.2172654620
N       -4.2651414784    6.8377971919    2.5564715419
N       -3.5340910327    5.6406218755    4.3054827188
O       -4.3819858534   -0.6681184361    4.1358583718
O       -2.1436356560   -1.1481603987    0.1434447208
O       -1.9592107872    6.6117937043    2.8811827551
S       -1.7693607903    3.2637117683    2.5583300561
H       -2.4270546080    1.9295881095   -3.9143129797
H       -3.1480425892    3.3099690696   -3.0570410137
H       -0.4182463714    2.0293866697   -2.4293464672
H       -0.8381089991    3.7387803134   -2.1665261703
H       -4.0526942773    1.6105224320   -1.4435648148
H       -2.7583691629    0.4773661846   -1.8921625143
H       -6.0168803244   -2.1303625445    2.5053783183
H       -5.2361388441   -3.7773533362    2.5431107058
H       -6.3224024792    6.3482765270    2.7738296012
H       -5.6843513983    7.4449297916    4.0283938670
H       -5.4321701584    5.3584608400    5.2114447895
H       -5.1754923100    4.4384263131    3.7065458895
H       -2.3986267560    3.1020813985   -0.3465305291
H       -4.4467202521   -3.3019580457    0.0493390426
H       -3.0791934372   -2.9431880254    2.0041892988
H       -3.7983024214    1.0721796534    6.1509980758
H       -4.1884704446    2.8035880503    6.2434551071
H       -5.1915873125    1.6875511182    5.2934166550
H       -5.8271181367   -0.6055465527    0.8124736796
H       -6.5652244907   -1.8171541079   -0.2453209311
H       -5.1317839955   -0.9192813091   -0.7804096076
H       -2.8901124206    4.4604360547    5.8982835784
H       -1.6272564480    5.0870821568    4.8424471393
H       -0.6873486095    0.5585255580   -0.3736735043
H       -0.3399597131    2.0071537765    0.5817947462
H       -4.1721695084    7.6986747560    2.0317801419
54   
torsion grid (-15,)
C       -3.1096841877    1.1859273264    3.3340238960
C       -3.2871858895    2.1721135137    4.3766570031
C       -2.6313263647    3.3415520485    4.0906790577
C       -3.6319113816   -0.1691418513    3.2945861719
C       -2.3275084002    1.6425524985    2.2913229898
C       -2.4657513294   -0.4333570875    1.0850070156
C       -3.1584293035    6.3955142575    3.2089912092
C       -2.5063825193    2.4161949541   -2.9657952618
C       -1.2147298221    2.7261813154   -2.1566146322
C       -2.9892157489    1.5244606192   -1.7869546670
C       -5.2837932517   -2.6175791718    2.1678016346
C       -5.4841612596    6.5641990539    3.4157516644
C       -4.9824422973    5.3690297292    4.2467762712
C       -1.9521787059    2.2427616725   -0.8763565035
C       -4.7859925709   -2.4793723828    0.7330669584
C       -3.8693231413   -2.2053424160    1.9040673523
C       -4.1154044042    1.9204644596    5.6077673377
C       -5.4249961066   -1.3440124493   -0.0434369611
C       -2.6171809125    4.6439025469    4.8442769754
C       -1.1502195665    1.4146147838    0.1179144592
N       -3.3349464369   -0.8694246493    2.0933886486
N       -1.9869342630    0.8750056225    1.2042060644
N       -4.3177111305    6.8251124349    2.5715215331
N       -3.5473003291    5.6363950754    4.3093420517
O       -4.2866954048   -0.6977678974    4.1889595580
O       -2.1422447926   -1.1510356909    0.1458268714
O       -2.0047754420    6.6232241050    2.8606412116
S       -1.7908984300    3.2759121322    2.5356431328
H       -2.3848767419    1.9375920879   -3.9413206714
H       -3.1303889203    3.3067420396   -3.0870082557
H       -0.3980638388    2.0477207449   -2.4271550125
H       -0.8364677969    3.7522752879   -2.1631690641
H       -4.0414132871    1.5890978815   -1.4956451067
H       -2.7280702188    0.4727628072   -1.9303030251
H       -5.9840111861   -1.8657070688    2.5133938996
H       -5.4142268409   -3.5938301084    2.6251581659
H       -6.3661828649    6.3144683266    2.8209711844
H       -5.7201165017    7.4182809886    4.0651006605
H       -5.4280280988    5.3351540414    5.2448490068
H       -5.1852982987    4.4170042119    3.7365030658
H       -2.4175106023    3.0941249235   -0.3686355207
H       -4.5676696469   -3.3806480973    0.1673429282
H       -3.1172422083   -2.9692911549    2.0826041180
H       -3.7264241010    1.0664125545    6.1682210801
H       -4.1374592304    2.7931167942    6.2639615791
H       -5.1425659001    1.6622844546    5.3345239124
H       -5.5852775998   -0.4685811770    0.5937165166
H       -6.4011660072   -1.6549164383   -0.4309966888
H       -4.8024502576   -1.0333452511   -0.8885822572
H       -2.8652666945    4.4655134464    5.8932262939
H       -1.6265398724    5.1029417602    4.8155215468
H       -0.6929974461    0.5594737316   -0.3795354082
H       -0.3519991886    2.0122293850    0.5721069427
H       -4.2418133490    7.6866993545    2.0452470864
54   
torsion grid (0,)
C       -3.1019134184    1.1926561308    3.3283341244
C       -3.2722662882    2.1755610963    4.3751517484
C       -2.6291063077    3.3502067966    4.0814696723
C       -3.6112317961   -0.1681081463    3.2967877143
C       -2.3365477378    1.6562241678    2.2764443406
C       -2.4744807144   -0.4199589528    1.0738509842
C       -3.1931269738    6.4042507982    3.2162513085
C       -2.5086023527    2.4230934189   -2.9875693872
C       -1.2207902465    2.7374454312   -2.1739247712
C       -2.9925375511    1.5300180095   -1.8102324990
C       -5.3389843520   -2.4619822798    2.1859862762
C       -5.5177043943    6.5510538516    3.4535271348
C       -4.9943578751    5.3578787272    4.2740886721
C       -1.9613658689    2.2521773550   -0.8960927624
C       -4.8565415219   -2.4650081052    0.7558070371
C       -3.8870017025   -2.1900221097    1.8896848605
C       -4.0842413230    1.9178278217    5.6158335788
C       -5.2929104989   -1.3740092253   -0.1992309388
C       -2.6150229587    4.6512157343    4.8373449399
C       -1.1605540722    1.4278323514    0.1020442751
N       -3.3570509067   -0.8513637444    2.0744282812
N       -1.9993459070    0.8896629968    1.1873656686
N       -4.3643171304    6.8263447797    2.5959365181
N       -3.5608654763    5.6371267440    4.3182629254
O       -4.2239802452   -0.7099230707    4.2121724550
O       -2.1417303479   -1.1433637472    0.1423563382
O       -2.0461814667    6.6437543459    2.8539423195
S       -1.8081156681    3.2927895270    2.5159619321
H       -2.3818488852    1.9440642047   -3.9622162321
H       -3.1351511560    3.3114214905   -3.1117477116
H       -0.4009995066    2.0615865394   -2.4415106057
H       -0.8458258576    3.7647470972   -2.1792985022
H       -4.0460538984    1.5899263232   -1.5230162267
H       -2.7265723855    0.4794657199   -1.9526669714
H       -5.9433189774   -1.6206957054    2.5065525582
H       -5.5729961699   -3.3956762708    2.6880200519
H       -6.4041505142    6.2943523490    2.8683265887
H       -5.7545979023    7.4007045868    4.1082759008
H       -5.4257936358    5.3170041200    5.2781014875
H       -5.1961615249    4.4056975624    3.7636824239
H       -2.4313294082    3.1027369818   -0.3911483337
H       -4.7124149062   -3.4374844801    0.2906075320
H       -3.1687208399   -2.9707736948    2.1214426445
H       -3.6904348452    1.0589048328    6.1650266556
H       -4.0953677261    2.7864168523    6.2776669350
H       -5.1160921334    1.6648553451    5.3548312348
H       -5.3711639944   -0.4065178267    0.3077068065
H       -6.2787994443   -1.6055069431   -0.6177933080
H       -4.5815417357   -1.2671576207   -1.0221016513
H       -2.8456251588    4.4688780584    5.8896267162
H       -1.6287985241    5.1185806891    4.7944333364
H       -0.7001012708    0.5723995262   -0.3919985995
H       -0.3647387782    2.0281805499    0.5568141145
H       -4.3029448484    7.6904689843    2.0719775622
54   
torsion grid (15,)
C       -3.0845986223    1.1848317573    3.3685878217
C       -3.2443889797    2.1689333010    4.4160356625
C       -2.6089129710    3.3452803218    4.1127161741
C       -3.5864944743   -0.1789335998    3.3465245651
C       -2.3333041614    1.6491444807    2.3070196184
C       -2.4715042323   -0.4337920621    1.1172678322
C       -3.1821921408    6.3951281004    3.2420339855
C       -2.5223308655    2.3889381957   -2.9593351034
C       -1.2293796543    2.7050997425   -2.1546692506
C       -3.0047223901    1.5085169748   -1.7718429292
C       -5.3791000455   -2.3332156896    2.2466938582
C       -5.5047521799    6.5415639672    3.4959007177
C       -4.9749806660    5.3509355711    4.3159907434
C       -1.9652961839    2.2332839568   -0.8691504257
C       -4.8989035584   -2.4915584872    0.8369744441
C       -3.8969786526   -2.1974459851    1.9403600255
C       -4.0399097177    1.9101890215    5.6670666121
C       -5.1472493946   -1.5445974486   -0.3168364650
C       -2.5912562879    4.6482501964    4.8650870253
C       -1.1635053287    1.4110990568    0.1302700431
N       -3.3695620017   -0.8538551713    2.1101431251
N       -2.0022612373    0.8791433735    1.2185124537
N       -4.3581749785    6.8138758168    2.6283759166
N       -3.5415009231    5.6318593521    4.3495411781
O       -4.1681406042   -0.7272653475    4.2774920571
O       -2.1252339025   -1.1679304861    0.1993026064
O       -2.0380084106    6.6339819248    2.8706491574
S       -1.8064736083    3.2874001500    2.5374841461
H       -2.4026009518    1.9013298173   -3.9306082437
H       -3.1457652467    3.2788466377   -3.0879144467
H       -0.4134230220    2.0238933070   -2.4203474593
H       -0.8505939376    3.7308764270   -2.1707911255
H       -4.0566759091    1.5770372372   -1.4807612487
H       -2.7462084617    0.4550748900   -1.9063994186
H       -5.8937283228   -1.4171314001    2.5142053756
H       -5.7090024718   -3.2065021652    2.8003826361
H       -6.3962396449    6.2836952839    2.9189735038
H       -5.7356092461    7.3931175819    4.1503866103
H       -5.3999082344    5.3126088407    5.3228780408
H       -5.1791205161    4.3971446939    3.8095136219
H       -2.4287921845    3.0893181733   -0.3675450283
H       -4.8203351196   -3.5272161996    0.5084422253
H       -3.2174195038   -2.9866270951    2.2457362135
H       -3.6253154754    1.0645234452    6.2216758000
H       -4.0605245507    2.7854734143    6.3197971883
H       -5.0693764602    1.6359095814    5.4188450778
H       -5.1581554625   -0.4989991565    0.0094733641
H       -6.1180532636   -1.7515959893   -0.7818104533
H       -4.3643893324   -1.6538953435   -1.0699143001
H       -2.8154168088    4.4680873281    5.9191205127
H       -1.6057403441    5.1164511624    4.8152310274
H       -0.7070025999    0.5523228038   -0.3615425367
H       -0.3648608969    2.0108356427    0.5808519319
H       -4.3011736031    7.6763436547    2.1011601629
54   
torsion grid (30,)
C       -3.0765529415    1.1959821536    3.3962481869
C       -3.2242279854    2.1782532440    4.4470279380
C       -2.5852943438    3.3519708009    4.1407519635
C       -3.5868231075   -0.1645566294    3.3760551657
C       -2.3302477638    1.6582700141    2.3303074359
C       -2.4829747823   -0.4250105038    1.1443587929
C       -3.1555906862    6.4053562836    3.2808681128
C       -2.5353483454    2.3864558294   -2.9343768111
C       -1.2317760976    2.6908206535   -2.1423656342
C       -3.0220212608    1.5242097073   -1.7352131898
C       -5.4324558349   -2.1921914015    2.2608387968
C       -5.4757164710    6.5582477244    3.5528338871
C       -4.9432336331    5.3645595074    4.3666924886
C       -1.9637338386    2.2396068487   -0.8471572880
C       -4.9354163246   -2.5145737582    0.8954425767
C       -3.9224452408   -2.1817804817    1.9771845027
C       -4.0117278203    1.9207644608    5.7034169596
C       -5.0181703238   -1.8103956557   -0.4423047915
C       -2.5575859265    4.6532384570    4.8957135023
C       -1.1665680736    1.4112583639    0.1508699744
N       -3.3924019512   -0.8347825950    2.1320674642
N       -2.0082773617    0.8866894849    1.2403228010
N       -4.3349858259    6.8288428614    2.6771128479
N       -3.5086692836    5.6409749535    4.3896172405
O       -4.1590825495   -0.7131843341    4.3123018586
O       -2.1339937302   -1.1651346432    0.2323339308
O       -2.0135733863    6.6415988570    2.9012222114
S       -1.7941808226    3.2935505613    2.5596618430
H       -2.4301075599    1.8878656179   -3.9017289969
H       -3.1465544486    3.2841942826   -3.0669604572
H       -0.4272384904    1.9965531356   -2.4089401084
H       -0.8393219552    3.7111920217   -2.1698199520
H       -4.0703075796    1.6145077374   -1.4363645067
H       -2.7831698327    0.4652169715   -1.8629172310
H       -5.8686286527   -1.2177351289    2.4501222232
H       -5.8501905832   -2.9899507350    2.8665865304
H       -6.3723081591    6.3040158584    2.9822327189
H       -5.6991341061    7.4092606599    4.2105965997
H       -5.3604455507    5.3257606376    5.3767892123
H       -5.1542435515    4.4122985560    3.8601610539
H       -2.4099088886    3.1059538236   -0.3476022180
H       -4.9079996199   -3.5941759023    0.7362372761
H       -3.2894364734   -2.9672591831    2.3765554622
H       -3.5934001929    1.0757190404    6.2563013605
H       -4.0280488920    2.7966616561    6.3554339389
H       -5.0427697380    1.6461545081    5.4622830723
H       -4.9860398073   -0.7199408100   -0.3449051850
H       -5.9527269417   -2.0669362284   -0.9549045086
H       -4.1739341060   -2.1147763285   -1.0628129793
H       -2.7741086348    4.4716429534    5.9511131841
H       -1.5709742292    5.1183469557    4.8391431779
H       -0.7188844535    0.5481539758   -0.3413985520
H       -0.3615824754    2.0040124668    0.5994433851
H       -4.2794789682    7.6920932837    2.1510276798
54   
torsion grid (45,)
C       -3.0737306707    1.1894386836    3.4651788356
C       -3.2052577784    2.1740450236    4.5159914404
C       -2.5458150225    3.3367297056    4.2112492282
C       -3.6128563143   -0.1593990296    3.4405674864
C       -2.3186047083    1.6390825875    2.3999964316
C       -2.5078767466   -0.4405474516    1.2119238129
C       -3.0635591111    6.3992799469    3.3508285979
C       -2.5638866667    2.3622275259   -2.8610551058
C       -1.2492225745    2.6556861807   -2.0833132081
C       -3.0447038381    1.5048408154   -1.6560193855
C       -5.5118277014   -2.0538986660    2.2575094890
C       -5.3808357093    6.5916034633    3.6220680446
C       -4.8689280327    5.3892155741    4.4363139926
C       -1.9715967309    2.2129825515   -0.7798699443
C       -4.9596499532   -2.5722908263    0.9837079565
C       -3.9724934760   -2.1812162449    2.0656308542
C       -3.9984835769    1.9296386344    5.7713529433
C       -4.8809066557   -2.2208183613   -0.4896297260
C       -2.4958474518    4.6374418079    4.9660264837
C       -1.1730381735    1.3794998847    0.2128189262
N       -3.4222124722   -0.8360270313    2.1999407370
N       -2.0116919032    0.8637065027    1.3087521754
N       -4.2354288730    6.8425798346    2.7466133604
N       -3.4298705399    5.6412322874    4.4596275773
O       -4.2083062633   -0.6955478818    4.3698318247
O       -2.1734872661   -1.1828950091    0.2961077859
O       -1.9176051817    6.6159952554    2.9714166210
S       -1.7543358611    3.2647729222    2.6308009229
H       -2.4735129035    1.8622035411   -3.8291664530
H       -3.1686785763    3.2651924926   -2.9874683554
H       -0.4540932489    1.9535598393   -2.3574108357
H       -0.8476832387    3.6723504842   -2.1164554035
H       -4.0890906451    1.6034204475   -1.3458491585
H       -2.8142756712    0.4441571882   -1.7855973512
H       -5.8619824294   -1.0294309946    2.3203493012
H       -6.0351914713   -2.7441387318    2.9112909153
H       -6.2814612733    6.3525105859    3.0512751037
H       -5.5899542300    7.4464345329    4.2795829181
H       -5.2870475354    5.3577004306    5.4462857070
H       -5.0959424290    4.4405906898    3.9299021844
H       -2.4056589772    3.0840015652   -0.2776958965
H       -4.9975560642   -3.6647768046    1.0323956719
H       -3.4192624824   -2.9426449472    2.6049045750
H       -3.5968617964    1.0758149069    6.3231637242
H       -3.9983952614    2.8045357638    6.4249139273
H       -5.0343471060    1.6751546317    5.5289365897
H       -4.8054370612   -1.1446563461   -0.6763687711
H       -5.7691082011   -2.5903585967   -1.0150385730
H       -3.9907348659   -2.6910210369   -0.9098234140
H       -2.7155690708    4.4597681130    6.0214253962
H       -1.5014517876    5.0856669249    4.9095053225
H       -0.7361625588    0.5121284200   -0.2816563206
H       -0.3599563328    1.9660045906    0.6548422524
H       -4.1651026628    7.7046671000    2.2203960424
54   
torsion grid (60,)
C       -3.1097858482    1.1781987243    3.4659060336
C       -3.2247540693    2.1540223500    4.5269710063
C       -2.5441977334    3.3076762708    4.2349450928
C       -3.6779033620   -0.1576769422    3.4236641721
C       -2.3467722822    1.6259949038    2.4052469671
C       -2.5757108613   -0.4354706822    1.1911721498
C       -3.0049010660    6.3889367089    3.4099700482
C       -2.6527845729    2.4158326421   -2.8433144985
C       -1.3276853023    2.6908305097   -2.0765712612
C       -3.1250468309    1.5445309468   -1.6449060761
C       -5.5995780323   -1.9386571908    2.1079078971
C       -5.3182955855    6.6209043279    3.6832487013
C       -4.8289249957    5.3998709407    4.4835026480
C       -2.0377815252    2.2341278091   -0.7712395745
C       -4.9730327398   -2.6423420749    0.9709836102
C       -4.0374295771   -2.1817349884    2.0657583350
C       -4.0224377869    1.9102580772    5.7796373710
C       -4.7547290750   -2.6852639299   -0.5334817478
C       -2.4702563236    4.5983974021    5.0047084188
C       -1.2324728289    1.3827741548    0.2005601112
N       -3.4739168729   -0.8370572755    2.1889147242
N       -2.0593116959    0.8603069428    1.3023153591
N       -4.1682012474    6.8608261822    2.8108401091
N       -3.3854728909    5.6250493097    4.5099206963
O       -4.3063785500   -0.6860640151    4.3361996800
O       -2.2731839349   -1.1623258711    0.2515046617
O       -1.8550314907    6.5888131480    3.0331859939
S       -1.7542986969    3.2392524011    2.6534501844
H       -2.5761372017    1.9288193220   -3.8192384285
H       -3.2535066361    3.3240075972   -2.9505217430
H       -0.5398179380    1.9881166948   -2.3695351271
H       -0.9205488200    3.7055576817   -2.1000611352
H       -4.1652029762    1.6443892017   -1.3212643869
H       -2.9018331580    0.4844722242   -1.7913570139
H       -5.8614331053   -0.8883525694    2.0331988537
H       -6.2298374144   -2.5103597041    2.7815651985
H       -6.2230294514    6.4051586575    3.1096525799
H       -5.5117540126    7.4717625224    4.3506446468
H       -5.2478916465    5.3643057088    5.4929900045
H       -5.0731970425    4.4615401533    3.9660617260
H       -2.4606089351    3.1005668902   -0.2517841756
H       -5.0842239377   -3.7042438931    1.2236510240
H       -3.5884055437   -2.8989907757    2.7436379024
H       -3.6387786479    1.0410384545    6.3201539308
H       -4.0031743409    2.7763231743    6.4446066945
H       -5.0634756928    1.6807958725    5.5346371419
H       -4.6038368565   -1.7034322007   -0.9925035737
H       -5.6118643155   -3.1640126253   -1.0201016883
H       -3.8560530447   -3.2752927114   -0.7212485717
H       -2.6934767109    4.4126807854    6.0579932114
H       -1.4677425302    5.0288138793    4.9533223701
H       -0.8088903831    0.5181772122   -0.3101044963
H       -0.4089894701    1.9579771409    0.6381771539
H       -4.0817785882    7.7275469107    2.2947219515
54   
torsion grid (75,)
C       -3.1279581858    1.2182981826    3.4318129530
C       -3.2361920411    2.1843008457    4.5025856933
C       -2.5420312870    3.3334131686    4.2253755340
C       -3.7108939829   -0.1100499977    3.3728714027
C       -2.3577529145    1.6695515464    2.3776110424
C       -2.6074475980   -0.3744787448    1.1370141351
C       -2.9637872397    6.4287420899    3.4337313208
C       -2.6924978790    2.5581298519   -2.8500364832
C       -1.3582909374    2.8016895950   -2.0885275697
C       -3.1675681658    1.6714757450   -1.6640775216
C       -5.6080396401   -1.8292097284    1.9053694548
C       -5.2750842874    6.6850596306    3.7029330780
C       -4.8025595132    5.4494979695    4.4909408806
C       -2.0646636669    2.3302145640   -0.7863707197
C       -4.9120273959   -2.6794577824    0.9248184282
C       -4.0385850357   -2.1435120953    2.0338010856
C       -4.0392699750    1.9351992077    5.7507421430
C       -4.5737293704   -3.0990257459   -0.5036921143
C       -2.4550212794    4.6144433303    5.0098767048
C       -1.2616310379    1.4507757231    0.1619523091
N       -3.4798061741   -0.7933438746    2.1478466568
N       -2.0820759414    0.9167134517    1.2630455108
N       -4.1196096614    6.9210694450    2.8366011255
N       -3.3566292527    5.6573053544    4.5240530410
O       -4.3691381720   -0.6342392802    4.2676066193
O       -2.3343192099   -1.0815240121    0.1725598992
O       -1.8105218252    6.6190271765    3.0624125765
S       -1.7492134643    3.2739710235    2.6450277213
H       -2.6294258268    2.0881606065   -3.8352646330
H       -3.2817891789    3.4759967225   -2.9361987458
H       -0.5820016044    2.0941603222   -2.4002712933
H       -0.9378057581    3.8112141795   -2.0965523298
H       -4.2037883543    1.7796255943   -1.3307005980
H       -2.9603460468    0.6112010848   -1.8308123062
H       -5.7942534147   -0.7779619404    1.7077903320
H       -6.3283027176   -2.2955969257    2.5701717272
H       -6.1805440172    6.4863913464    3.1243361319
H       -5.4605371907    7.5306803695    4.3792007050
H       -5.2249681639    5.4076956433    5.4987527536
H       -5.0563039106    4.5199194466    3.9623960782
H       -2.4716278227    3.1924079048   -0.2476438539
H       -5.1043989561   -3.6761801001    1.3497622658
H       -3.7014065654   -2.8052476847    2.8230057320
H       -3.6647202479    1.0572186312    6.2835994258
H       -4.0135129076    2.7942001959    6.4246091646
H       -5.0815352072    1.7173895693    5.5008320323
H       -4.3242664808   -2.2733158639   -1.1767171357
H       -5.4134453335   -3.6571793777   -0.9313044043
H       -3.7001181456   -3.7511962124   -0.4451896633
H       -2.6834546935    4.4196644805    6.0603982394
H       -1.4473613635    5.0335340159    4.9660512025
H       -0.8537450217    0.5909761874   -0.3691061934
H       -0.4268156985    2.0078318719    0.6018001740
H       -4.0213926707    7.7923478550    2.3303661515
54   
torsion grid (90,)
C       -3.2260076604    1.1900024881    3.3785381575
C       -3.3096623926    2.1220585461    4.4811316684
C       -2.5951511662    3.2662409567    4.2373995626
C       -3.8373059948   -0.1227879593    3.2790359166
C       -2.4547572480    1.6618963914    2.3336748985
C       -2.7543637883   -0.3326410201    1.0261822529
C       -2.9640291411    6.3919624179    3.5493362972
C       -2.8905435572    2.7546354864   -2.8397393532
C       -1.5325866199    2.9450067044   -2.1055788658
C       -3.3533362551    1.8359026491   -1.6734730493
C       -5.7361170400   -1.7119767658    1.6060769684
C       -5.2685758369    6.6814917022    3.8418860446
C       -4.8140434167    5.4129522386    4.5868645587
C       -2.2141963708    2.4400072316   -0.8027327690
C       -5.0114314997   -2.6748604381    0.7651085944
C       -4.1830498998   -2.1211559835    1.8964121930
C       -4.1097650030    1.8466444672    5.7257005871
C       -4.6637610080   -3.4106370559   -0.5346413610
C       -2.4793086746    4.5188614075    5.0629067058
C       -1.4042414243    1.5102524993    0.0902518491
N       -3.5978242986   -0.7812134859    2.0453392393
N       -2.2062641765    0.9452243740    1.1894792139
N       -4.1141974534    6.9240769867    2.9759290708
N       -3.3643560237    5.5934874243    4.6173063583
O       -4.5217373770   -0.6559442803    4.1497193416
O       -2.5249895066   -1.0022950590    0.0232671480
O       -1.8097684370    6.5728747337    3.1764638660
S       -1.8139183148    3.2448109578    2.6503260511
H       -2.8620848123    2.3184749008   -3.8419905072
H       -3.4629220030    3.6863247052   -2.8787200581
H       -0.7786501565    2.2348719749   -2.4629167419
H       -1.0926307690    3.9460990638   -2.0885938837
H       -4.3779061898    1.9540907458   -1.3088181537
H       -3.1742352233    0.7781210574   -1.8826079412
H       -5.8223319886   -0.6653853300    1.3274559019
H       -6.5381755585   -2.0780633895    2.2395298088
H       -6.1809918820    6.5179132723    3.2632261455
H       -5.4343878024    7.5082592140    4.5459974434
H       -5.2312127615    5.3463372934    5.5955209011
H       -5.0877622066    4.5055982642    4.0304121116
H       -2.5886319585    3.2895221197   -0.2220285647
H       -5.3119355064   -3.5889869209    1.3070963023
H       -3.9691886202   -2.7423906578    2.7572667704
H       -3.7566641559    0.9378455156    6.2200854872
H       -4.0537956006    2.6770219073    6.4328152990
H       -5.1598366633    1.6687957939    5.4766762539
H       -4.2764286567   -2.7767229887   -1.3389303895
H       -5.5517252459   -3.9366274092   -0.8992529780
H       -3.8925692480   -4.1413441529   -0.2821143124
H       -2.7051834831    4.2940034240    6.1079573572
H       -1.4643233730    4.9205873139    5.0261814774
H       -1.0243793301    0.6657742011   -0.4843690475
H       -0.5494914596    2.0354863309    0.5310973976
H       -4.0030642285    7.8090675802    2.4968850192
