22   
torsion grid (-165,)
C       -0.1978217288   -0.0655945217    1.5241075409
C       -0.3056464775   -1.1619887597   -0.6885112929
C       -0.0697196028   -1.4219786225    0.8163021437
C       -1.0100521292   -2.4888052838    1.3831527632
C        1.5248178442    2.6646982359    1.9013216397
N        0.5400932639    0.8809600577    0.6732182598
N        0.4659813517    2.2550227686    0.9809426347
O        1.0633825169    0.8868267568   -1.8984305307
O       -1.3268829138    1.2827248111   -1.1301930815
S       -0.0220173819    0.6241447622   -0.9553620562
H       -1.2548206162    0.2284224234    1.6388394420
H        0.2685047496   -0.0919652392    2.5122905911
H        0.3731500023   -1.7120891010   -1.3403820181
H       -1.3398579055   -1.3372977214   -0.9892311594
H        0.9669051333   -1.7551568207    0.9216211138
H       -2.0427378663   -2.3171667422    1.0618636355
H       -0.9798893667   -2.5024057513    2.4776927126
H       -0.7246290132   -3.4849874656    1.0296529927
H        2.4905932513    2.4954114043    1.4209462848
H        1.4111722876    3.7363928030    2.0894408421
H        1.5114423380    2.1346762100    2.8669385364
H       -0.4650452997    2.4965972752    1.3244302472
22   
torsion grid (-150,)
C       -0.1369413047    0.0842250697    1.5658274084
C       -0.2378123036   -0.9230934779   -0.6855238194
C       -0.0132618868   -1.2455271773    0.8104029443
C       -0.9598670564   -2.3358551717    1.3344310764
C        1.6143992124    2.7745001500    2.0724054707
N        0.6242248836    1.0533047362    0.7617251549
N        0.5653573349    2.4148677765    1.1209035053
O        1.1933362364    1.1377956910   -1.7984758074
O       -1.2013011576    1.5565260541   -1.0571916958
S        0.0864253537    0.8649313036   -0.8835090011
H       -1.1923929246    0.3855677208    1.6769683920
H        0.3146782229    0.0168447284    2.5589475566
H        0.4309960119   -1.4638630565   -1.3553650060
H       -1.2744128262   -1.0625319911   -0.9956234120
H        1.0220954166   -1.5862730532    0.8980291890
H       -1.9273769883   -2.3094401406    0.8237300979
H       -1.1257493575   -2.2392021890    2.4121532048
H       -0.5404166940   -3.3307979547    1.1540407086
H        2.5854177621    2.6048006748    1.6028468363
H        1.5157199490    3.8410120659    2.2952105842
H        1.5754792003    2.2124187755    3.0190901678
H       -0.3679832089    2.6592537135    1.4557479251
22   
torsion grid (-135,)
C       -0.1816721099    0.0001216849    1.5300595117
C       -0.3799343647   -1.0234672791   -0.6932716464
C       -0.0640799264   -1.3357454655    0.7843033107
C       -0.9489631795   -2.4507317232    1.3757019990
C        1.5526534325    2.7058572133    1.9823619924
N        0.5610996521    0.9626286144    0.7027556898
N        0.5007390900    2.3293164156    1.0403128460
O        1.1393280650    0.9445561171   -1.8565707608
O       -1.2388195534    1.4846603850   -1.1407476314
S        0.0176885863    0.7457339019   -0.9400022290
H       -1.2374694635    0.2957081516    1.6557288373
H        0.2862096142   -0.0562776478    2.5164826788
H        0.2054999047   -1.6064152712   -1.4047838062
H       -1.4440207454   -1.1100066435   -0.9189449106
H        0.9857659307   -1.6390786929    0.8205645122
H       -1.8304067914   -2.6434835330    0.7570969059
H       -1.2879605371   -2.2007676499    2.3860711224
H       -0.3995035003   -3.3942438520    1.4393007812
H        2.5222846479    2.5320367258    1.5114176477
H        1.4515045672    3.7752442614    2.1898247448
H        1.5191516915    2.1577778369    2.9373715033
H       -0.4317553659    2.5776049817    1.3749380972
22   
torsion grid (-120,)
C       -0.1687711103    0.0047030738    1.5345901541
C       -0.3912563610   -0.9949288734   -0.6952620782
C       -0.0587266613   -1.3248849679    0.7726850134
C       -0.9340433621   -2.4478576226    1.3703137280
C        1.5835708184    2.6983790552    1.9982238203
N        0.5710812380    0.9729047354    0.7110286953
N        0.5198495503    2.3360331520    1.0639481455
O        1.1189170154    0.9815232346   -1.8555412765
O       -1.2488480391    1.5207061157   -1.1050207956
S        0.0077673643    0.7760384211   -0.9277091607
H       -1.2227273227    0.3022722329    1.6692249223
H        0.3050147243   -0.0623166938    2.5175937176
H        0.1843048009   -1.5717479109   -1.4197682119
H       -1.4584051650   -1.0775808448   -0.9081689607
H        0.9944575133   -1.6150585055    0.8142372579
H       -1.6518451508   -2.8376237413    0.6426378534
H       -1.5106852373   -2.0884425317    2.2288600121
H       -0.3254295905   -3.2886537395    1.7125753405
H        2.5472429281    2.5255351566    1.5148515448
H        1.4892391340    3.7659282912    2.2179948679
H        1.5582158826    2.1403814357    2.9477335080
H       -0.4079127543    2.5843987518    1.4114105141
22   
torsion grid (-105,)
C       -0.0096201270    0.1468112993    1.6670939762
C       -0.2056854859   -0.7371450816   -0.6147497594
C        0.0877179354   -1.1460577743    0.8398631277
C       -0.8268273326   -2.2713525249    1.3618253450
C        1.8026678559    2.7699592201    2.2914044661
N        0.7680740202    1.1365634286    0.9054861873
N        0.7431122951    2.4809351915    1.3272666301
O        1.3450848153    1.2765383691   -1.6511585333
O       -1.0232676086    1.8088806890   -0.8969917184
S        0.2209247868    1.0375166322   -0.7474494806
H       -1.0587042735    0.4631829014    1.7952798310
H        0.4424037424    0.0223343980    2.6547686940
H        0.3798684071   -1.2856672417   -1.3530605683
H       -1.2687316457   -0.7960580610   -0.8551029178
H        1.1337578216   -1.4569474634    0.9084776116
H       -1.3311197766   -2.7953670926    0.5442928351
H       -1.6197012641   -1.8664171920    2.0002946920
H       -0.2692278909   -3.0050145156    1.9490804308
H        2.7683551536    2.6009866061    1.8107064372
H        1.7289159437    3.8264039007    2.5658906472
H        1.7530349350    2.1637242332    3.2098620886
H       -0.1831510822    2.7322482334    1.6766230839
22   
torsion grid (-90,)
C        0.0338813786    0.2587582969    1.7042659990
C       -0.1723780002   -0.5519331373   -0.6047098012
C        0.1201355101   -1.0075007452    0.8347771676
C       -0.8078908125   -2.1323319029    1.3143837261
C        1.8645196179    2.8494420989    2.4061066102
N        0.8175224635    1.2664714084    0.9718894629
N        0.8020106582    2.5972205219    1.4349995321
O        1.3902088592    1.4813967970   -1.5807109200
O       -0.9728177922    2.0074340111   -0.8056437150
S        0.2660008626    1.2229094032   -0.6824616802
H       -1.0121789973    0.5795310491    1.8445974008
H        0.4874454414    0.1004261223    2.6862887333
H        0.4075229161   -1.0811176711   -1.3613030126
H       -1.2367519968   -0.5972470366   -0.8433061143
H        1.1624373299   -1.3324935845    0.9022843948
H       -1.1009751619   -2.7879773186    0.4882757174
H       -1.7385846442   -1.7180732797    1.7188355699
H       -0.3393396580   -2.7360472376    2.0961166833
H        2.8285781072    2.6894514451    1.9190828184
H        1.7977601036    3.8972675833    2.7134522378
H        1.8121733846    2.2152518582    3.3053549478
H       -0.1221646699    2.8440827050    1.7929556118
22   
torsion grid (-75,)
C        0.0429910564    0.2181431354    1.7033906960
C       -0.1554576206   -0.6048767695   -0.6141599557
C        0.1133740097   -1.0502795430    0.8364073848
C       -0.8427459603   -2.1495356609    1.3058795077
C        1.8820954627    2.8176826280    2.3595787562
N        0.8056424388    1.2291060991    0.9534726621
N        0.7925654794    2.5593934616    1.4203102723
O        1.2874115438    1.5061146296   -1.6117254895
O       -1.0694685759    1.9178045010   -0.7533357464
S        0.2058071381    1.1862095275   -0.6819373258
H       -1.0000960680    0.5363323103    1.8682704863
H        0.5202419270    0.0624285683    2.6743961229
H        0.4740890569   -1.1063311015   -1.3494674876
H       -1.2071024258   -0.6992428381   -0.8908343624
H        1.1454586821   -1.4059680091    0.9085429615
H       -0.9383204118   -2.9379992691    0.5523023956
H       -1.8469729162   -1.7432272973    1.4714047647
H       -0.5001566600   -2.6019351851    2.2415473291
H        2.8321800563    2.6685885161    1.8426135246
H        1.8152349274    3.8636246719    2.6732262364
H        1.8629391413    2.1793580721    3.2571861331
H       -0.1221452962    2.7951133756    1.8087888665
22   
torsion grid (-60,)
C        0.0580000276    0.2204710269    1.7096741657
C       -0.1596470145   -0.5864547746   -0.6148120327
C        0.1155312717   -1.0408777282    0.8333734808
C       -0.8450773493   -2.1357818451    1.2979236415
C        1.8960575773    2.8197618039    2.3653157699
N        0.8093904406    1.2386041610    0.9586373157
N        0.7978715431    2.5656847809    1.4349613118
O        1.2655266852    1.5388312605   -1.6082036522
O       -1.0846297138    1.9336524020   -0.7242208991
S        0.1941223274    1.2064973897   -0.6710608238
H       -0.9829092048    0.5359742376    1.8928802586
H        0.5496214288    0.0551540981    2.6717836436
H        0.4697728605   -1.0786834270   -1.3563768313
H       -1.2113112640   -0.6823063889   -0.8905962735
H        1.1435692492   -1.4125416570    0.8793628145
H       -0.7661846437   -3.0246568152    0.6637862257
H       -1.8830976035   -1.7872941556    1.2648541769
H       -0.6214309925   -2.4383945721    2.3265595945
H        2.8413240477    2.6763198679    1.8380218331
H        1.8301008482    3.8633638476    2.6868478765
H        1.8870562166    2.1752016521    3.2586088212
H       -0.1134378676    2.7961705300    1.8344436408
22   
torsion grid (-45,)
C        0.0621565401    0.2070564730    1.7055654960
C       -0.1827447039   -0.5871686802   -0.6202048829
C        0.1078312951   -1.0494332031    0.8253194503
C       -0.8476238569   -2.1493098744    1.2948630165
C        1.9057464270    2.8015919933    2.3584708804
N        0.8063468305    1.2284990170    0.9525494899
N        0.8002733434    2.5530630382    1.4353600138
O        1.2457294097    1.5345652183   -1.6162494339
O       -1.0962540604    1.9374767829   -0.7145369561
S        0.1793105497    1.2040380963   -0.6727352780
H       -0.9769879133    0.5214550182    1.9017018886
H        0.5632360664    0.0363865248    2.6618672398
H        0.4356377083   -1.0788464451   -1.3713381334
H       -1.2376348143   -0.6756777320   -0.8850289239
H        1.1341758097   -1.4277225997    0.8386402967
H       -0.6106473726   -3.1077480872    0.8229497374
H       -1.8903587910   -1.8954874121    1.0797846139
H       -0.7553854120   -2.2979064176    2.3770733684
H        2.8468033314    2.6590672261    1.8234512983
H        1.8437470406    3.8439013481    2.6849467157
H        1.9026231355    2.1532736435    3.2490956316
H       -0.1078021205    2.7833932902    1.8421868932
22   
torsion grid (-30,)
C        0.0706656840    0.2166226729    1.7074140355
C       -0.1916001881   -0.5574646208   -0.6227443417
C        0.1083401618   -1.0332044788    0.8178711106
C       -0.8409387471   -2.1433340008    1.2918825191
C        1.9232228030    2.8026009025    2.3693682158
N        0.8104957972    1.2435208913    0.9583520159
N        0.8098969596    2.5638182881    1.4531329680
O        1.2291558947    1.5740070922   -1.6110563077
O       -1.1051189082    1.9680715951   -0.6859219464
S        0.1707133030    1.2342729300   -0.6618687990
H       -0.9670207102    0.5294675773    1.9136080186
H        0.5782486204    0.0363868298    2.6585500282
H        0.4223241393   -1.0418105594   -1.3823039266
H       -1.2475913964   -0.6417826322   -0.8837069526
H        1.1350478855   -1.4094653526    0.8082151193
H       -0.4637409642   -3.1338561111    1.0220149797
H       -1.8510333108   -2.0202958203    0.8908606932
H       -0.9178801031   -2.1341550006    2.3855530894
H        2.8596922734    2.6639899096    1.8253467134
H        1.8651241410    3.8419432991    2.7058564540
H        1.9266670731    2.1461353945    3.2539968785
H       -0.0945217410    2.7912657026    1.8695774308
22   
torsion grid (-15,)
C        0.0853714449    0.2767904274    1.7250889728
C       -0.2359963602   -0.4372502096   -0.6026397172
C        0.1187219077   -0.9527123879    0.8079719095
C       -0.7917902344   -2.1011705257    1.2846622887
C        1.9474711771    2.8331911061    2.4529686953
N        0.8373987129    1.3115529500    0.9997324732
N        0.8471172895    2.6231340721    1.5144520890
O        1.3212883059    1.6093912894   -1.5618028907
O       -1.0045859527    2.1379256196   -0.6838819486
S        0.2261648766    1.3330317102   -0.6333464776
H       -0.9517097012    0.5921832526    1.9322099136
H        0.5861199997    0.0736285944    2.6754078026
H        0.2988618975   -0.9426995471   -1.4071420065
H       -1.3100816715   -0.4542224041   -0.7943653909
H        1.1548064470   -1.2988233569    0.7598123479
H       -0.2838576425   -3.0671764403    1.2216674015
H       -1.7226929737   -2.1579040243    0.7136417204
H       -1.0648506460   -1.9642171296    2.3368381231
H        2.8911720613    2.6869834299    1.9235914503
H        1.8991540530    3.8690018559    2.8017104834
H        1.9255577385    2.1658789232    3.3291989821
H       -0.0613265286    2.8597663873    1.9168277001
22   
torsion grid (0,)
C       -0.1605277698    0.4056012398    1.6338957236
C        0.0980076230   -0.6556514122   -0.5627970499
C        0.0972777319   -0.9459165280    0.9505393626
C       -0.9014699709   -2.0459979139    1.3704742121
C        1.4815316768    3.0993698570    2.4012724844
N        0.7555555784    1.3444435838    0.9686576574
N        0.6451618317    2.7175084401    1.2652949317
O        1.8555889571    1.2733474293   -1.4133456059
O       -0.6112716284    1.8540814959   -1.2185158700
S        0.5643506952    1.1044141307   -0.7485454263
H       -1.2142447882    0.7143814836    1.5244905687
H        0.0837294038    0.3639716353    2.6987449880
H        0.8092071751   -1.2583042408   -1.1284307515
H       -0.8981565813   -0.7351170663   -1.0012337707
H        1.1123058676   -1.2413684233    1.2289558622
H       -0.3922232153   -2.8835816084    1.8540852527
H       -1.4498560689   -2.4484429151    0.5136919007
H       -1.6443515918   -1.6606944983    2.0762093260
H        2.5257673852    2.9069241192    2.1468679270
H        1.3542742276    4.1732615654    2.5668645641
H        1.2408847379    2.5685253749    3.3360721767
H       -0.3331132966    2.9817232173    1.3930669484
22   
torsion grid (15,)
C       -0.1697105493    0.3782365231    1.6240226977
C        0.0646023352   -0.6868460695   -0.5757591268
C        0.0794355939   -0.9748118960    0.9363399951
C       -0.9181624848   -2.0673214817    1.3676669352
C        1.4948058255    3.0692037914    2.3605656641
N        0.7363731111    1.3159892494    0.9427734277
N        0.6333330894    2.6890268923    1.2429428162
O        1.7785940034    1.2637268216   -1.4655714139
O       -0.6893120891    1.8154866906   -1.2083347216
S        0.5063331025    1.0784345734   -0.7694393422
H       -1.2242234730    0.6883947242    1.5295328921
H        0.0906127076    0.3390210341    2.6851486969
H        0.7795618652   -1.2822914832   -1.1442432875
H       -0.9340284774   -0.7825493855   -1.0056237227
H        1.0930949675   -1.2651927501    1.2252117316
H       -0.4658206876   -2.7561434065    2.0862332678
H       -1.2311143827   -2.6770225161    0.5136769717
H       -1.8230635998   -1.6404596037    1.8105186261
H        2.5331167965    2.8772144225    2.0826688846
H        1.3712644026    4.1428270446    2.5306518068
H        1.2749758880    2.5368293946    3.2996064956
H       -0.3417951507    2.9531934924    1.3930139560
22   
torsion grid (30,)
C       -0.1536527249    0.3872672188    1.6387907816
C        0.0562423243   -0.6559121750   -0.5749407108
C        0.0868068716   -0.9583399816    0.9330683475
C       -0.9109320742   -2.0460464556    1.3544156197
C        1.5184671923    3.0713275497    2.3826128884
N        0.7451075678    1.3316902018    0.9562906256
N        0.6457007025    2.7017997053    1.2702528452
O        1.7620154344    1.3015588228   -1.4629050207
O       -0.7026126946    1.8530268368   -1.1756362058
S        0.4966756775    1.1108383369   -0.7557288141
H       -1.2086741632    0.6995455645    1.5596861215
H        0.1193695736    0.3369628058    2.6961812799
H        0.7639372553   -1.2461459400   -1.1576352794
H       -0.9477319080   -0.7478232504   -0.9937691510
H        1.0996397710   -1.2574996959    1.2174510486
H       -0.5619393614   -2.5763142991    2.2454158388
H       -1.0127456613   -2.8037335213    0.5695322251
H       -1.9065083546   -1.6333924133    1.5444813014
H        2.5538573875    2.8814640270    2.0925964973
H        1.3971863722    4.1433884823    2.5638366811
H        1.3077653196    2.5304224540    3.3188821454
H       -0.3277540239    2.9649995806    1.4324950191
22   
torsion grid (45,)
C       -0.1257977568    0.4329479746    1.6595817487
C        0.1102072057   -0.5807429889   -0.5785504882
C        0.1010357235   -0.9015767896    0.9287126776
C       -0.9292170122   -1.9699834863    1.3022281314
C        1.5618144167    3.1044343506    2.4242752232
N        0.7627400387    1.3900640464    0.9813810862
N        0.6641795927    2.7540642337    1.3253046809
O        1.7090851378    1.4665964239   -1.4654098329
O       -0.7663879694    1.9065862162   -1.0918205104
S        0.4750317107    1.2047846859   -0.7270085113
H       -1.1810301023    0.7488192661    1.6038453260
H        0.1647764595    0.3631531426    2.7110268257
H        0.8681918485   -1.1294315733   -1.1379112003
H       -0.8698440540   -0.7157855006   -1.0396766366
H        1.0995298653   -1.2385931951    1.2221965558
H       -0.7507705761   -2.3487319201    2.3137794819
H       -0.8594173605   -2.8286208296    0.6256954509
H       -1.9503929968   -1.5794172983    1.2428379284
H        2.5908756088    2.9274317682    2.1051610242
H        1.4389403057    4.1714759207    2.6320412517
H        1.3768104175    2.5415952523    3.3529717421
H       -0.3064599154    3.0063711242    1.5187394979
22   
torsion grid (60,)
C       -0.1460643062    0.2687050994    1.6284489336
C        0.0389193080   -0.8028232201   -0.5894742502
C        0.0663459113   -1.0822942042    0.9273961234
C       -0.9532278679   -2.1411437465    1.3478656035
C        1.5397401463    2.9709183774    2.2765516901
N        0.7164018941    1.2132435587    0.9009529184
N        0.6170793213    2.5851467147    1.2107513989
O        1.6006668094    1.2303014524   -1.5698121522
O       -0.8676314671    1.6642993619   -1.1459212483
S        0.3873508496    0.9802486727   -0.7939599976
H       -1.2047053738    0.5767154580    1.5960068388
H        0.1757092450    0.2266383053    2.6721803255
H        0.7879275646   -1.3604018844   -1.1520244680
H       -0.9500091061   -0.9560216778   -1.0251234501
H        1.0735149366   -1.4208126313    1.1884041889
H       -0.9090462484   -2.3164420139    2.4281733467
H       -0.7614360834   -3.0948487817    0.8456930579
H       -1.9719052553   -1.8259192409    1.0972099799
H        2.5616345532    2.7919242139    1.9361998884
H        1.4146231482    4.0423974802    2.4585264135
H        1.3823769858    2.4323753041    3.2245654858
H       -0.3500883570    2.8369146757    1.4214357265
22   
torsion grid (75,)
C       -0.1343683214    0.2747561059    1.6338536991
C        0.0323376310   -0.7802284107   -0.5944650154
C        0.0710277120   -1.0701104111    0.9227027248
C       -0.9451839356   -2.1342104005    1.3451568576
C        1.5508026014    2.9757502323    2.2858129062
N        0.7181853665    1.2266233301    0.9048755723
N        0.6186917166    2.5958337739    1.2261773078
O        1.5780444900    1.2659351723   -1.5742116121
O       -0.8873187235    1.6878997724   -1.1223301279
S        0.3734374161    1.0053729775   -0.7883551371
H       -1.1942470784    0.5802430005    1.6154266327
H        0.1985772312    0.2248015471    2.6737142760
H        0.7801821150   -1.3302688626   -1.1658810152
H       -0.9579866521   -0.9326664015   -1.0266488052
H        1.0826077387   -1.4167083206    1.1538564422
H       -1.0682195707   -2.1440150300    2.4337805643
H       -0.6422760040   -3.1332554635    1.0187073596
H       -1.9305322482   -1.9215142301    0.9159304801
H        2.5697469898    2.8018077645    1.9341857290
H        1.4249714104    4.0455204352    2.4770927915
H        1.4040022305    2.4297096748    3.2312340159
H       -0.3469594550    2.8438742473    1.4478643316
22   
torsion grid (90,)
C       -0.1284570056    0.2620708717    1.6324952437
C        0.0111105890   -0.7805106214   -0.6021439919
C        0.0674920272   -1.0795812175    0.9140762410
C       -0.9405987057   -2.1524940016    1.3516841005
C        1.5648948508    2.9572848447    2.2842125111
N        0.7179225620    1.2168171093    0.9009949722
N        0.6232640471    2.5843769490    1.2305445458
O        1.5580128467    1.2640077636   -1.5847212225
O       -0.9016692967    1.6942941252   -1.1105926412
S        0.3587570214    1.0047156950   -0.7902477174
H       -1.1884689966    0.5680079355    1.6259966115
H        0.2141194656    0.2055944706    2.6689258432
H        0.7494045005   -1.3302859150   -1.1861800316
H       -0.9845589333   -0.9243233825   -1.0243343788
H        1.0845928574   -1.4254778805    1.1189653580
H       -1.2413847138   -2.0039336479    2.3945509905
H       -0.5379027118   -3.1624396409    1.2398825230
H       -1.8597634698   -2.0893157935    0.7593952178
H        2.5805348942    2.7833260364    1.9231566571
H        1.4426180212    4.0263035472    2.4818820280
H        1.4250885026    2.4067828368    3.2281044045
H       -0.3401106905    2.8328220592    1.4614393184
22   
torsion grid (105,)
C       -0.1251437100    0.2986078157    1.6346751110
C       -0.0497005414   -0.6940908720   -0.6106867088
C        0.0683457139   -1.0292693849    0.8908052962
C       -0.9002427522   -2.1375088671    1.3482186190
C        1.5727778614    2.9720844139    2.3437217355
N        0.7300037467    1.2601320619    0.9229793087
N        0.6450998359    2.6231179194    1.2697703817
O        1.6306492847    1.2667335500   -1.5414565996
O       -0.8125379959    1.8317219327   -1.1273682905
S        0.3985603945    1.0721933124   -0.7787002283
H       -1.1842693807    0.6087653205    1.6288644261
H        0.2118997308    0.2222202189    2.6718046085
H        0.6157095735   -1.2762026201   -1.2487872236
H       -1.0764698747   -0.7627214530   -0.9736511951
H        1.1005584569   -1.3498799361    1.0566562852
H       -1.3764194061   -1.8763845659    2.2992054664
H       -0.3931511548   -3.0979564280    1.4687824460
H       -1.7128240129   -2.2800837871    0.6290512202
H        2.5922971056    2.7897675451    1.9979911925
H        1.4600336379    4.0401695611    2.5519094541
H        1.4102128602    2.4126099689    3.2786629540
H       -0.3191595429    2.8812820343    1.4859396971
22   
torsion grid (120,)
C       -0.2253040281    0.0708595924    1.5231121141
C       -0.2393310216   -1.0188332959   -0.6744813644
C       -0.0381499423   -1.2870261665    0.8294070907
C       -0.9569196627   -2.3939835213    1.3902165596
C        1.4616286010    2.7967835506    2.0360739390
N        0.5827147673    1.0116450815    0.7323238624
N        0.4914741602    2.3873979011    1.0227109605
O        1.3677780748    0.9174893201   -1.7703385166
O       -1.0611648018    1.4720445761   -1.2671313710
S        0.1752537374    0.7435044769   -0.9424295929
H       -1.2887519177    0.3641723894    1.5477012126
H        0.1559881894    0.0480566380    2.5475109356
H        0.3990908284   -1.6217117205   -1.3209310363
H       -1.2833556106   -1.1158296126   -0.9770370764
H        1.0088846873   -1.5645403324    0.9769987380
H       -1.6079748976   -2.0082648577    2.1813417239
H       -0.3760205389   -3.2163866999    1.8158978128
H       -1.6043343946   -2.8179675349    0.6172538049
H        2.4670623251    2.6137957506    1.6516092462
H        1.3412118014    3.8713394513    2.2024591207
H        1.3511903378    2.2770482076    3.0010852311
H       -0.4659342244    2.6410298614    1.2720934294
22   
torsion grid (135,)
C       -0.2095598738    0.0772354941    1.5333154680
C       -0.2473062962   -0.9888298237   -0.6746641818
C       -0.0298393676   -1.2739963526    0.8217186629
C       -0.9462381300   -2.3803682544    1.3793653399
C        1.4943635172    2.7910552884    2.0594581239
N        0.5953173155    1.0235826534    0.7453659686
N        0.5125066653    2.3962472809    1.0516619011
O        1.3525420209    0.9544823102   -1.7667838865
O       -1.0691220593    1.5109768304   -1.2310818868
S        0.1685267892    0.7753068975   -0.9278350755
H       -1.2716920893    0.3739397540    1.5673788143
H        0.1781797778    0.0444173422    2.5550707823
H        0.3824021319   -1.5866552205   -1.3342075186
H       -1.2955352637   -1.0821913271   -0.9643622778
H        1.0175447190   -1.5471020313    0.9759520447
H       -1.7716519278   -1.9595124661    1.9626018805
H       -0.3912042103   -3.0399960644    2.0530860011
H       -1.3681462132   -3.0043323511    0.5866042908
H        2.4951498766    2.6081223608    1.6630257287
H        1.3800194512    3.8642553644    2.2384108370
H        1.3914226415    2.2615598301    3.0199979872
H       -0.4413495391    2.6511240488    1.3131703252
22   
torsion grid (150,)
C       -0.2224969159    0.0470651595    1.5201277546
C       -0.2815611447   -1.0259672408   -0.6891282020
C       -0.0544596179   -1.3054209473    0.8068614005
C       -0.9747062993   -2.3983918862    1.3684696128
C        1.4934349338    2.7624345746    2.0072542910
N        0.5668377949    0.9928732775    0.7152619143
N        0.4889122773    2.3658929654    1.0227263291
O        1.2590772261    0.9459444588   -1.8158020389
O       -1.1560109700    1.4621838400   -1.2142813237
S        0.1006740423    0.7447238467   -0.9468521410
H       -1.2834150704    0.3443737591    1.5734449391
H        0.1851669848    0.0163061625    2.5340657395
H        0.3574931499   -1.6129683494   -1.3492615339
H       -1.3285786147   -1.1405272701   -0.9761168105
H        0.9909619004   -1.5866241486    0.9624981712
H       -1.9243735760   -1.9787742673    1.7167935868
H       -0.5092202980   -2.8803888958    2.2344481519
H       -1.1820515075   -3.1783038750    0.6300653674
H        2.4849801160    2.5821765996    1.5870997726
H        1.3808422394    3.8352385913    2.1896765325
H        1.4144605480    2.2319734939    2.9695215251
H       -0.4589405962    2.6186963190    1.3070889607
22   
torsion grid (165,)
C       -0.2276327184   -0.0300421447    1.5115345506
C       -0.2945076732   -1.1372979217   -0.6890111972
C       -0.0687337818   -1.3905471627    0.8147719420
C       -0.9961494339   -2.4679122060    1.3817793555
C        1.4955988266    2.6967207708    1.9218886030
N        0.5400155671    0.9089670987    0.6770787391
N        0.4629073988    2.2847047086    0.9735830655
O        1.1395719032    0.8785599494   -1.8787608808
O       -1.2666248016    1.3180518788   -1.1866438349
S        0.0223536736    0.6423617874   -0.9661373557
H       -1.2882849684    0.2645180380    1.5827075557
H        0.2006050638   -0.0433884656    2.5171963658
H        0.3753328428   -1.7068345562   -1.3335231883
H       -1.3324881162   -1.2970854599   -0.9863061627
H        0.9734753413   -1.6861916850    0.9674827338
H       -2.0197364868   -2.0918031296    1.4855475827
H       -0.6617825379   -2.7756348315    2.3783153711
H       -1.0125596757   -3.3587423670    0.7463630620
H        2.4745067701    2.5200824041    1.4716541238
H        1.3809745906    3.7701749843    2.0990689060
H        1.4514581624    2.1737098506    2.8904607440
H       -0.4770200912    2.5340373209    1.2857625207
22   
torsion grid (180,)
C       -0.2077630800   -0.0750916625    1.5189774494
C       -0.2927657003   -1.1848811743   -0.6874308594
C       -0.0696545582   -1.4360869736    0.8185952042
C       -1.0151491929   -2.4967500418    1.3831185493
C        1.5120778391    2.6584498254    1.8954289567
N        0.5385006766    0.8667930058    0.6699265726
N        0.4609154016    2.2422377443    0.9693403494
O        1.0838819167    0.8590034111   -1.8972496029
O       -1.3136036016    1.2565396834   -1.1521842633
S       -0.0095710666    0.6004760029   -0.9623379476
H       -1.2659448327    0.2194354277    1.6198484386
H        0.2473659616   -0.0941743226    2.5125571481
H        0.3922571938   -1.7378721499   -1.3302885459
H       -1.3247890605   -1.3645658790   -0.9936484523
H        0.9663842135   -1.7600761286    0.9552907262
H       -2.0610543767   -2.1960061820    1.2585021613
H       -0.8316269502   -2.6526988103    2.4516375836
H       -0.8771711652   -3.4573340521    0.8764754355
H        2.4818217663    2.4909324915    1.4224053370
H        1.3936085648    3.7303537639    2.0794450099
H        1.4937762961    2.1314470562    2.8626398881
H       -0.4730056134    2.4855254067    1.3036617851
