18   
torsion grid (-165,)
C        1.7425150334   -1.2119894021   -1.0573916649
C       -0.4412222047   -1.5900661450    0.5699406498
C       -1.2137200383   -0.1634362299   -1.6683267986
C       -2.4159885684   -0.5229483477   -4.1162627526
C        0.7928377696    1.2008013087   -0.1814325865
S       -2.4647290110    0.7712231472   -1.2032852026
S       -0.9085497330   -0.9400630006   -3.1847549863
S        0.3281250116   -0.5811986498   -0.4978715361
H        2.4053593689   -0.5206186419   -1.5651880319
H        1.7034860796   -2.2551077350   -1.3454067262
H       -1.4669637504   -1.3134145148    0.7842154968
H        0.2001674917   -1.9296652802    1.3769383852
H       -2.3042833854   -0.9827025518   -5.1005185636
H       -2.5129667527    0.5601085179   -4.2106676719
H       -3.2935869984   -0.9241988995   -3.6062667433
H       -0.0849112207    1.6903005188    0.2384827908
H        1.6192391270    1.1837725073    0.5300292647
H        1.0846317113    1.6727967977   -1.1230860866
18   
torsion grid (-150,)
C        1.5244531514   -1.2524468345   -1.4572005868
C       -0.1616536596   -1.4440773411    0.7086068432
C       -0.9075109024    0.0455693338   -1.9831342813
C       -2.4674291413   -0.6958037873   -4.1259791173
C        0.6047992434    1.1472027213    0.2372703148
S       -1.8374207870    1.3785164391   -1.8297689097
S       -1.0157392144   -1.2298738752   -3.1546095148
S        0.3467474918   -0.5051289671   -0.5592620058
H        1.7819578937   -0.7339922022   -2.3752015679
H        2.3173246148   -1.6832814370   -0.8547851456
H       -0.7763208181   -0.9258325693    1.4375201547
H       -0.4203050374   -2.4590576255    0.4279993212
H       -2.6182975489   -1.4670936195   -4.8850533163
H       -2.2781324699    0.2689693507   -4.5996327453
H       -3.3460989164   -0.6189119679   -3.4824832855
H       -0.2926461114    1.4874620749    0.7538691926
H        1.4315723117    0.9828166386    0.9294117800
H        0.8841398300    1.8485570672   -0.5484198937
18   
torsion grid (-135,)
C        1.5688182010   -1.1908708599   -1.4649963253
C       -0.1483212691   -1.4900168236    0.6643967366
C       -0.8516257385    0.0715457446   -2.0329505051
C       -2.5147214523   -0.7191561471   -4.0834503714
C        0.5508714391    1.1292252966    0.2880836030
S       -1.5581932950    1.5412072642   -2.0785425294
S       -1.1334365147   -1.3077591899   -3.0457603314
S        0.3576345615   -0.5054008184   -0.5663409241
H        1.7805452596   -0.6804080668   -2.3985096549
H        2.3840232664   -1.5917742768   -0.8720316230
H       -0.7635204727   -1.0084589787    1.4174601518
H       -0.3749671285   -2.5050989976    0.3593721658
H       -2.7770499103   -1.5557401671   -4.7353246516
H       -2.2044352172    0.1409486838   -4.6790204835
H       -3.3667344173   -0.4419424675   -3.4595132335
H       -0.3813767632    1.4443737239    0.7584947921
H        1.3355003971    0.9558542459    1.0254753446
H        0.8664289840    1.8570652334   -0.4576949243
18   
torsion grid (-120,)
C        1.6105256941   -1.1458113951   -1.4697629111
C       -0.0987318273   -1.5358066160    0.6456083079
C       -0.8124940883    0.0755929049   -2.0703838461
C       -2.5631974287   -0.7145805068   -4.0532711318
C        0.4809436243    1.1141622365    0.3230848823
S       -1.2775403780    1.6186128805   -2.3174429471
S       -1.2982921960   -1.3588309639   -2.9090476578
S        0.3742518338   -0.5152094312   -0.5659205055
H        1.7746442163   -0.6471004411   -2.4190544271
H        2.4544822667   -1.4976945642   -0.8859102185
H       -0.7192782103   -1.0924698192    1.4176493555
H       -0.2785422632   -2.5571033759    0.3313831305
H       -2.9423439919   -1.5799059053   -4.6016974663
H       -2.1182553520    0.0047675979   -4.7427476200
H       -3.3696697676   -0.2344234958   -3.4956351093
H       -0.4928438961    1.4057197862    0.7204233847
H        1.2069144336    0.9471085080    1.1193582019
H        0.8388672603    1.8565659997   -0.3874861857
18   
torsion grid (-105,)
C        1.6690192760   -1.1055678707   -1.4692325103
C       -0.0553205689   -1.5796546778    0.6100734684
C       -0.7628836189    0.0669335045   -2.1068867358
C       -2.6159768389   -0.6973427215   -4.0083639591
C        0.4011298628    1.0992398030    0.3444155002
S       -0.9787728692    1.6188635604   -2.5557464110
S       -1.4950197898   -1.3659829570   -2.7383134286
S        0.4022968629   -0.5231142427   -0.5730265898
H        1.8205096473   -0.5909487708   -2.4125092275
H        2.5258887336   -1.4126224273   -0.8782555017
H       -0.7020228699   -1.1780842732    1.3832430440
H       -0.1697806062   -2.6068188512    0.2856943822
H       -3.1325471442   -1.5573746783   -4.4402388275
H       -2.0445333776   -0.1735105453   -4.7765154982
H       -3.3334462031   -0.0104625366   -3.5554698983
H       -0.6069728448    1.3364819168    0.6908037102
H        1.0891639070    0.9567297101    1.1781103979
H        0.7587083719    1.8668294567   -0.3386346787
18   
torsion grid (-90,)
C        1.7410523558   -1.0568390913   -1.4680021114
C       -0.0252560038   -1.6220627599    0.5480821498
C       -0.7047032442    0.0406192867   -2.1372292765
C       -2.6681181092   -0.6723409299   -3.9380691739
C        0.3172499352    1.0839334111    0.3484288450
S       -0.6801267198    1.5362824974   -2.7844379611
S       -1.6957231452   -1.3172478637   -2.5411994745
S        0.4343958591   -0.5237798161   -0.5931020056
H        1.9257988043   -0.4852744154   -2.3719598467
H        2.5833790174   -1.3524684615   -0.8498258800
H       -0.7224923080   -1.2668893259    1.2992896144
H       -0.0662731346   -2.6488534657    0.2060301223
H       -3.3264213678   -1.4852472785   -4.2520719800
H       -2.0046890801   -0.3836881114   -4.7552529189
H       -3.2549528841    0.1920640937   -3.6220732955
H       -0.7180968598    1.2581550758    0.6507319099
H        0.9730786803    0.9697653407    1.2119310793
H        0.6613381345    1.8774652131   -0.3121225601
18   
torsion grid (-75,)
C        1.8260166180   -0.9906146036   -1.4480653030
C       -0.0057102869   -1.6645288742    0.4792369365
C       -0.6409547973    0.0056097549   -2.1712772844
C       -2.7188809225   -0.6355266241   -3.8566729220
C        0.2312621010    1.0612145012    0.3349886893
S       -0.4073595445    1.3872802725   -3.0034382272
S       -1.8382965030   -1.2268622692   -2.3773701698
S        0.4642278917   -0.5286716176   -0.6172754342
H        2.0425911737   -0.3779298822   -2.3162175186
H        2.6416497416   -1.2882149050   -0.7961077585
H       -0.7455084298   -1.3487598828    1.2062511131
H        0.0183959575   -2.6870954398    0.1238388369
H       -3.5008634180   -1.3700853868   -4.0605622163
H       -2.0299953833   -0.5691738029   -4.7006627158
H       -3.1582294000    0.3454104941   -3.6667850273
H       -0.8250752301    1.1798776292    0.5890755456
H        0.8507302151    0.9777997871    1.2285738192
H        0.5654401468    1.8738642483   -0.3083831271
18   
torsion grid (-60,)
C        1.9276372611   -0.9202052730   -1.3927874859
C        0.0225065291   -1.7087555102    0.4268380645
C       -0.5714972472   -0.0398170563   -2.2235015271
C       -2.7757994217   -0.5744732262   -3.7778458288
C        0.1388547492    1.0264198796    0.3019253169
S       -0.1745202934    1.1793342131   -3.2275809397
S       -1.9205012363   -1.1252473314   -2.2678237192
S        0.4991593682   -0.5480548467   -0.6385236505
H        2.1555086698   -0.3032785372   -2.2535220154
H        2.7187730583   -1.1857236614   -0.6991866711
H       -0.7531995060   -1.4245751833    1.1286750253
H        0.1014462200   -2.7276680836    0.0689596230
H       -3.6561309036   -1.2124157794   -3.8809369639
H       -2.1187396752   -0.6899849186   -4.6416364162
H       -3.0720919144    0.4717734714   -3.6832501825
H       -0.9330956458    1.0922148793    0.5053924709
H        0.7180464403    0.9821724128    1.2252716354
H        0.4630834773    1.8518779502   -0.3313194993
18   
torsion grid (-45,)
C        2.0291656980   -0.8462207738   -1.3187151247
C        0.0698361972   -1.7529243146    0.3930708781
C       -0.5005379325   -0.1055876568   -2.2874934846
C       -2.8310693291   -0.4881751084   -3.7026149204
C        0.0396878814    0.9814522540    0.2540028067
S        0.0165939454    0.9081092801   -3.4497011848
S       -1.9747035141   -1.0145108076   -2.1843491324
S        0.5384857145   -0.5744448415   -0.6572567014
H        2.2632828212   -0.2420367732   -2.1857658470
H        2.7937784564   -1.0594344138   -0.5800129202
H       -0.7465400532   -1.5009269738    1.0602273974
H        0.2029313122   -2.7680080441    0.0397343055
H       -3.7892664401   -1.0120244889   -3.7107491415
H       -2.2396157564   -0.7631125683   -4.5775859588
H       -2.9867639322    0.5921767791   -3.6934631057
H       -1.0419022076    0.9896598227    0.4101649279
H        0.5785803325    0.9811050799    1.2028946514
H        0.3474967365    1.8184969484   -0.3732402089
18   
torsion grid (-30,)
C        1.4131175884   -1.5152085841   -1.2243317539
C       -0.5202929619   -1.2179303022    0.6997389014
C       -0.9076288276    0.6818314388   -1.4854251048
C       -3.2883738840    2.0599991271   -1.9039292255
C        1.5483619132    0.9684451770   -0.0842911485
S       -0.4232111658    1.0715929595   -2.9878352752
S       -2.3674898055    1.0844027244   -0.6642673945
S        0.4181547976   -0.4692482825   -0.4425916228
H        2.2366895349   -1.0772716117   -1.7759800642
H        0.9379478078   -2.4226216890   -1.5766038008
H       -1.3787903978   -0.6541249021    1.0445502352
H        0.0441266138   -1.8065697258    1.4147047134
H       -4.2292952222    2.3470222256   -1.4285717065
H       -3.4786829700    1.4486985616   -2.7875866510
H       -2.7161580095    2.9454707546   -2.1855858446
H        0.9322196100    1.7370319349    0.3848042037
H        2.3095561426    0.6026474728    0.6065115889
H        1.9896888952    1.3363260745   -1.0118678621
18   
torsion grid (-15,)
C        1.4989072715   -1.4703460408   -1.2080031571
C       -0.5275927756   -1.2972020284    0.6399653374
C       -0.9377490096    0.5735282160   -1.5257112907
C       -3.2170072871    2.1418035000   -1.8624760336
C        1.4614421030    1.0092941627   -0.0596856036
S       -0.6221850103    0.6726207947   -3.1149664730
S       -2.2212942639    1.2657207755   -0.6053759635
S        0.4240018618   -0.4927696939   -0.4502409998
H        2.3289803140   -0.9872230406   -1.7098405492
H        1.0933282087   -2.4024444926   -1.5809732086
H       -1.4579677034   -0.8099137305    0.9038002070
H        0.0209715830   -1.8551141866    1.3906360134
H       -4.0466849098    2.6077676070   -1.3256748807
H       -3.5916038622    1.4290875197   -2.5988182489
H       -2.6088073299    2.8994908259   -2.3592256228
H        0.8055663272    1.7177147284    0.4478456952
H        2.2688707021    0.6839227208    0.5981511724
H        1.8487634396    1.4345557161   -0.9879642058
18   
torsion grid (0,)
C        1.5571488910   -1.4194963366   -1.2057198560
C       -0.5377094460   -1.3482390769    0.5817067456
C       -0.9584222288    0.5099941767   -1.5436310367
C       -3.1622146097    2.1925477392   -1.8537403147
C        1.4118782220    1.0305185684   -0.0116334836
S       -0.8515320622    0.3239718559   -3.1510630126
S       -2.0672010407    1.4382171560   -0.6004134255
S        0.4290958706   -0.4965125630   -0.4570601367
H        2.3798081579   -0.8925673240   -1.6752210947
H        1.1935010397   -2.3523456865   -1.6179635794
H       -1.4847723140   -0.8829530775    0.8256297710
H       -0.0030616908   -1.9219477394    1.3305217799
H       -3.8830079219    2.8025835553   -1.3042977287
H       -3.6743819315    1.4094872255   -2.4148953877
H       -2.5772355086    2.8122115776   -2.5352455603
H        0.7448977297    1.6826427270    0.5527471240
H        2.2565785471    0.7112327774    0.6006825598
H        1.7465699554    1.5211477982   -0.9289611757
18   
torsion grid (15,)
C        1.6054907582   -1.3678715901   -1.2146642143
C       -0.5373105321   -1.3851703215    0.5260186577
C       -0.9799040448    0.4708868307   -1.5529993753
C       -3.1217532258    2.2346629891   -1.8631476280
C        1.3788398717    1.0382365134    0.0434110391
S       -1.1020571635    0.0204963579   -3.1054095286
S       -1.9097455817    1.6116422865   -0.6466066153
S        0.4356927202   -0.4941585269   -0.4691123887
H        2.4218160886   -0.8039282584   -1.6513107956
H        1.2758057508   -2.2969251851   -1.6623646639
H       -1.4915981601   -0.9340627652    0.7687571628
H       -0.0117788653   -1.9940328630    1.2528696467
H       -3.7380839471    2.9665236042   -1.3358691369
H       -3.7355930826    1.4092967927   -2.2270829253
H       -2.6017008980    2.7040688269   -2.6996296606
H        0.7000913457    1.6502262440    0.6375279687
H        2.2308565673    0.7119320230    0.6415897288
H        1.7008720576    1.5786703951   -0.8505350832
18   
torsion grid (30,)
C        1.6539429326   -1.3097577160   -1.2289203466
C       -0.5061440656   -1.4509890188    0.4851928853
C       -1.0298836699    0.4170148134   -1.5356243894
C       -3.0655078448    2.2925659042   -1.8977664749
C        1.3243411031    1.0455970477    0.0946001675
S       -1.3928581377   -0.2602829033   -2.9627045221
S       -1.7574451223    1.7689564815   -0.7362871047
S        0.4380974127   -0.5017433309   -0.4777937631
H        2.4482440353   -0.6985033690   -1.6427941276
H        1.3635878951   -2.2344809351   -1.7119033337
H       -1.4785079741   -1.0410459052    0.7311666570
H        0.0339683909   -2.0734193793    1.1891012721
H       -3.5631695800    3.1477978968   -1.4347425648
H       -3.7720196263    1.4753270665   -2.0511065514
H       -2.6216164756    2.5790530533   -2.8524795007
H        0.6382703804    1.5953672699    0.7386849818
H        2.2005745607    0.7204233999    0.6571814599
H        1.6060654446    1.6486129778   -0.7723625565
18   
torsion grid (45,)
C        1.6892615611   -1.2258190573   -1.2730263965
C       -0.4236581451   -1.5471053754    0.4661828057
C       -1.1314132549    0.3512933320   -1.4570683203
C       -2.9879994012    2.3680132336   -1.9728945431
C        1.2492571533    1.0446879282    0.1593120318
S       -1.7431829778   -0.5093180579   -2.6872636374
S       -1.6157966636    1.9057026937   -0.8617024046
S        0.4344270592   -0.5130786938   -0.4820184117
H        2.4451716550   -0.5575766479   -1.6718052148
H        1.4379496879   -2.1408387621   -1.7957103660
H       -1.4336030906   -1.2399672632    0.7084806418
H        0.1630500066   -2.1716336744    1.1286324015
H       -3.3296248821    3.3523777063   -1.6444627371
H       -3.7936038842    1.6365891258   -1.8924418459
H       -2.6323969214    2.4102628311   -3.0037082978
H        0.5461346163    1.5265437729    0.8384031006
H        2.1387862520    0.7222092053    0.7021680885
H        1.5071808887    1.7081510564   -0.6696347067
18   
torsion grid (60,)
C        1.6859170675   -1.1154098904   -1.3507708259
C       -0.2914090911   -1.6127596309    0.5007316692
C       -1.2653988313    0.3015295143   -1.3028906165
C       -2.9113536851    2.4121548309   -2.0903154726
C        1.1842887580    1.0452521692    0.2251760159
S       -2.1268478876   -0.6921845883   -2.2524552281
S       -1.4912382131    1.9984614667   -1.0216213527
S        0.4279848460   -0.5089224992   -0.4714310810
H        2.3966157858   -0.3946109009   -1.7415999198
H        1.4551854580   -2.0135829502   -1.9112435157
H       -1.3320764742   -1.4589239932    0.7480002802
H        0.3625093704   -2.2965163413    1.0245396519
H       -3.0848482507    3.4837079217   -1.9665845325
H       -3.7896300465    1.8442842981   -1.7800959535
H       -2.6726947665    2.1796673322   -3.1295870274
H        0.4561527524    1.4830817718    0.9078702777
H        2.0686857291    0.7210833969    0.7755067469
H        1.4480971381    1.7441814459   -0.5717869281
18   
torsion grid (75,)
C        1.2211985727   -1.0556895313   -1.7661169349
C        0.2215261359   -1.6824626505    0.7068490927
C       -1.1685430134    0.3361382590   -1.4147527347
C       -2.7333290153    2.4616234045   -2.3173757416
C        0.9335401170    0.9496366941    0.5963867285
S       -2.2605585193   -0.7020234319   -2.0122880759
S       -1.1743369616    2.0701759350   -1.4532002484
S        0.4071258964   -0.5151558904   -0.4403328686
H        1.0763505509   -0.4825139722   -2.6740846831
H        2.1541020713   -1.5659272768   -1.5581477272
H       -0.0502880209   -1.3421115599    1.7007844242
H       -0.1522077624   -2.6276019788    0.3321208605
H       -2.7934644992    3.5515603794   -2.3618342376
H       -3.5784043252    2.0535614159   -1.7603958317
H       -2.7177314736    2.0378073088   -3.3226124321
H        0.1139960312    1.2743035837    1.2417539951
H        1.7907866511    0.6137614743    1.1813879458
H        1.2301772235    1.7454111905   -0.0866993430
18   
torsion grid (90,)
C        1.1725655721   -0.9411354776   -1.8273482154
C        0.2823813234   -1.7467791095    0.6364901188
C       -1.2365243686    0.3449654432   -1.2640338474
C       -2.6629301768    2.4350979743   -2.4428795772
C        0.8985427608    0.9163493156    0.6931868828
S       -2.4853432039   -0.6553981596   -1.5183668023
S       -1.0668842362    2.0223202814   -1.6580733170
S        0.4091771297   -0.5015578321   -0.4274603447
H        1.0119241704   -0.2692485218   -2.6635858266
H        2.1399177940   -1.4102362429   -1.6836612718
H        0.0223692405   -1.4832564073    1.6561533713
H       -0.0601872799   -2.6796607277    0.2066062502
H       -2.6076177918    3.4916948351   -2.7149394174
H       -3.4782585438    2.2635104242   -1.7383089823
H       -2.8084382156    1.8181422911   -3.3309828793
H        0.0627910834    1.1706346143    1.3498363274
H        1.7674553147    0.5833847263    1.2623945252
H        1.1589990866    1.7616659262    0.0564151938
18   
torsion grid (105,)
C        1.1808674023   -0.8499340721   -1.8526864771
C        0.2964201581   -1.7851789440    0.5718409661
C       -1.2535923643    0.3746872308   -1.1875898257
C       -2.6319219809    2.4021591257   -2.5240442017
C        0.8720003216    0.8826942944    0.7568830958
S       -2.6007000110   -0.5240884682   -1.1276742345
S       -0.9925918719    1.9459452902   -1.8600930096
S        0.4147979652   -0.4911762620   -0.4286398346
H        1.0153461534   -0.1369993121   -2.6524690693
H        2.1550391771   -1.3119885394   -1.7333113336
H        0.0366942434   -1.5747149061    1.6033320418
H       -0.0269255142   -2.7036731463    0.0988057445
H       -2.5205490175    3.3966154799   -2.9623637550
H       -3.3675157885    2.4193159421   -1.7183520644
H       -2.9350011111    1.6807961954   -3.2844693868
H        0.0329519565    1.0667220448    1.4328338121
H        1.7609233995    0.5604647340    1.3009342259
H        1.0836965413    1.7688466662    0.1585054940
18   
torsion grid (120,)
C        1.2258132350   -0.7852890047   -1.8575577898
C        0.3016561574   -1.8172428345    0.5175454726
C       -1.2508757796    0.4049311216   -1.1540352598
C       -2.6213620484    2.3775142223   -2.5752245492
C        0.8343321281    0.8488244679    0.7948339349
S       -2.6474386345   -0.3419585330   -0.8066765411
S       -0.9518810072    1.8478447784   -2.0550612456
S        0.4208521950   -0.4925549762   -0.4402294146
H        1.0471165404   -0.0681706481   -2.6495413682
H        2.2088678994   -1.2265166470   -1.7351502560
H        0.0266088120   -1.6430493040    1.5515543926
H       -0.0028089532   -2.7254111765    0.0127397434
H       -2.4869583102    3.2982163342   -3.1477509871
H       -3.2444279116    2.5597195770   -1.6982017577
H       -3.0760997220    1.6045144575   -3.1965811229
H       -0.0072872042    0.9732976601    1.4809239496
H        1.7382756115    0.5425182221    1.3233187779
H        1.0055566511    1.7633056362    0.2265362089
18   
torsion grid (135,)
C        1.2819404025   -0.7309883359   -1.8511507828
C        0.2979459287   -1.8492391385    0.4649338530
C       -1.2454771540    0.4434312358   -1.1319281598
C       -2.6267423757    2.3540754410   -2.6206566833
C        0.7968143790    0.8101937230    0.8257914546
S       -2.6421100779   -0.1127195431   -0.5218504595
S       -0.9508425123    1.7327728361   -2.2392827382
S        0.4258365937   -0.4993704498   -0.4540601550
H        1.0985133060   -0.0119800062   -2.6397704442
H        2.2742906329   -1.1449072963   -1.7119129814
H        0.0109047372   -1.7085773392    1.5003698592
H        0.0220277007   -2.7502545406   -0.0683320922
H       -2.4944192761    3.1862352785   -3.3160685328
H       -3.1155533756    2.6935291481   -1.7060241039
H       -3.2178327789    1.5616312571   -3.0822477918
H       -0.0396571585    0.8774752896    1.5252383381
H        1.7184546241    0.5207187849    1.3330181535
H        0.9258460632    1.7484670087    0.2853754545
18   
torsion grid (150,)
C        1.3256604244   -0.6577687682   -1.8368958495
C        0.2792691345   -1.8814624154    0.3961250958
C       -1.2331068670    0.5201837007   -1.0917417689
C       -2.6531699639    2.3064772170   -2.6881916075
C        0.7901894106    0.7558726155    0.8799672525
S       -2.5833117493    0.1915614583   -0.2505785320
S       -0.9892346665    1.6057066589   -2.4074485140
S        0.4243028963   -0.4901801764   -0.4594975144
H        1.1842644452    0.1057048669   -2.5915918011
H        2.3099377519   -1.0845081908   -1.6805106712
H       -0.0358503371   -1.7862195783    1.4284159737
H        0.0108984934   -2.7556194575   -0.1842365646
H       -2.5525491220    3.0109988265   -3.5171451002
H       -2.9995937689    2.8196602111   -1.7896244717
H       -3.3504879804    1.5085714052   -2.9484145033
H       -0.0151201028    0.7529042553    1.6168560890
H        1.7438743789    0.4716762363    1.3275632188
H        0.8639672818    1.7269344883    0.3883914568
18   
torsion grid (165,)
C        1.6744703961   -1.3456374843   -1.0106073370
C       -0.3755389019   -1.4871699595    0.8053217321
C       -1.3078754091   -0.3425215612   -1.5856420173
C       -2.3079724884   -0.3063494863   -4.1527522737
C        0.7663840609    1.1740582733   -0.3993084405
S       -2.7908368798    0.0216715175   -1.0271237922
S       -0.7797564886   -0.6237336293   -3.2154839318
S        0.3000889484   -0.6368596226   -0.4437814849
H        2.3172719900   -0.7273305847   -1.6269851820
H        1.6045610009   -2.4128337801   -1.1803344370
H       -1.3963746658   -1.2171033461    1.0441031306
H        0.3273285652   -1.6980233710    1.6040347471
H       -2.0549135810   -0.4436625018   -5.2061983285
H       -2.6572331372    0.7121553885   -3.9733892780
H       -3.0817957269   -1.0146026151   -3.8519375721
H       -0.1092257107    1.7081052931   -0.0285912449
H        1.6066987818    1.2692618829    0.2903641967
H        1.0341591762    1.5141689858   -1.4025412500
18   
torsion grid (180,)
C        1.6995660144   -1.2794743818   -1.0446380788
C       -0.4132507551   -1.5473497742    0.6855172214
C       -1.2592087954   -0.2438635366   -1.6204243173
C       -2.3527426335   -0.4232616397   -4.1373733479
C        0.7815217003    1.1943984781   -0.2866030362
S       -2.6440189173    0.4211732378   -1.0813077745
S       -0.8280613087   -0.7837179357   -3.2097040768
S        0.3113475690   -0.6053764511   -0.4709045072
H        2.3527060227   -0.6241702855   -1.6097605598
H        1.6378695662   -2.3351392836   -1.2776138668
H       -1.4319349511   -1.2658486589    0.9228660015
H        0.2627514804   -1.8295688708    1.4860858150
H       -2.1638116079   -0.7309205601   -5.1680281135
H       -2.5783085710    0.6437875740   -4.0931398215
H       -3.1864625275   -0.9890950213   -3.7179938689
H       -0.0911295988    1.7049598163    0.1206150766
H        1.6235706655    1.2338393609    0.4059078723
H        1.0490365778    1.6032213315   -1.2643533811
