19   
torsion grid (-165,)
C        5.7562029112    1.5610177166   -0.1343432875
C        4.9710279959    1.5003298431    1.0235942843
C        5.3191203524    0.9141447946   -1.2930147116
C        3.7676294344    0.7932851541    1.0175910704
C        4.1085316326    0.2111998743   -1.2957510076
C        3.3179041705    0.1346408015   -0.1405183939
C        1.6076450447   -1.6213294615   -1.1370386280
C        2.0230712960   -2.1098578879    0.2320532136
C        2.0266071258   -0.6201327667   -0.0857166803
H        6.6946652349    2.1095143619   -0.1326032628
H        5.2991494797    2.0023079327    1.9305986473
H        5.9161335203    0.9620826671   -2.2005485958
H        3.1657419359    0.7437047420    1.9228341889
H        3.7748010715   -0.2689447711   -2.2111556884
H        2.2819858517   -1.8213789528   -1.9633653902
H        0.5554793662   -1.6620514788   -1.4029597228
H        1.2604929672   -2.4883618894    0.9068962892
H        2.9913367637   -2.5941976597    0.3178380148
H        1.2117743414   -0.0631295501    0.3721636489
19   
torsion grid (-150,)
C        5.7647177218    1.5608342773   -0.1474651201
C        5.0329094550    1.3889037124    1.0341526873
C        5.2761637203    1.0270626546   -1.3428982417
C        3.8274398791    0.6847870192    1.0155181616
C        4.0646068020    0.3259338970   -1.3568489722
C        3.3270304030    0.1404418008   -0.1795392653
C        1.7200533546   -1.7197823101   -1.1246942360
C        1.9440549782   -2.0223046717    0.3420356800
C        2.0198786587   -0.5923070891   -0.1645572742
H        6.7050611064    2.1060791075   -0.1346116862
H        5.4051360549    1.8009095210    1.9690414508
H        5.8344710571    1.1598917967   -2.2664804885
H        3.2658568348    0.5456410570    1.9370274995
H        3.6852047708   -0.0736734960   -2.2935635559
H        2.4998807438   -2.0226075092   -1.8167916320
H        0.7121472114   -1.7996868518   -1.5211539506
H        1.0909886534   -2.3069026317    0.9514223445
H        2.8803322498   -2.5000262940    0.6156112808
H        1.1668239811    0.0289722036    0.1030989451
19   
torsion grid (-135,)
C        5.7590519802    1.5605481353   -0.1540494446
C        5.0831290656    1.2724350469    1.0372910309
C        5.2172744355    1.1405140840   -1.3728864285
C        3.8759222168    0.5693962083    1.0057642244
C        4.0074685857    0.4386983961   -1.3990342968
C        3.3223664309    0.1429401417   -0.2117998554
C        1.8113642582   -1.8195328282   -1.0742497675
C        1.8591116904   -1.9299426157    0.4365174981
C        2.0079874330   -0.5786405637   -0.2326019280
H        6.7000996150    2.1043497881   -0.1315738068
H        5.4991278178    1.5927310422    1.9894935097
H        5.7364614527    1.3593946745   -2.3028716613
H        3.3557794049    0.3396403487    1.9331565418
H        3.5880620539    0.1148882514   -2.3485946731
H        2.6681635367   -2.1927619119   -1.6276991729
H        0.8558785895   -1.9587889704   -1.5715719550
H        0.9363442125   -2.1423468815    0.9687661012
H        2.7501083264   -2.3675442339    0.8775454170
H        1.1394858556    0.0737628264   -0.1538450923
19   
torsion grid (-120,)
C        5.7661198880    1.5603099897   -0.1591026319
C        5.1399949302    1.1595873029    1.0255147795
C        5.1742057818    1.2548594842   -1.3900103755
C        3.9298002728    0.4598969759    0.9778868408
C        3.9657202503    0.5542271371   -1.4320106574
C        3.3275512721    0.1480763304   -0.2496567221
C        1.8993453830   -1.9134758592   -1.0024062298
C        1.7781250183   -1.8269927240    0.5056847485
C        2.0137195017   -0.5727788307   -0.3064002040
H        6.7079172981    2.1021624341   -0.1242948790
H        5.5942782619    1.3911879588    1.9858930409
H        5.6564533086    1.5596775647   -2.3156757283
H        3.4452324467    0.1492640951    1.9005279089
H        3.5106929483    0.3111403935   -2.3896928508
H        2.8110907876   -2.3440446964   -1.4064127682
H        1.0037696179   -2.1187175791   -1.5818116504
H        0.7997046029   -1.9745854182    0.9535943206
H        2.6078713448   -2.2069203392    1.0946993287
H        1.1495283373    0.0809012576   -0.4161062917
19   
torsion grid (-105,)
C        5.6978203612    1.6395734544   -0.1045310204
C        4.5732539956    1.9171707597   -0.8864126807
C        5.8098712437    0.3931647027    0.5239229469
C        3.5675448639    0.9557004036   -1.0396628297
C        4.8016732911   -0.5607453780    0.3711911694
C        3.6658932105   -0.2935044517   -0.4116987853
C        1.6389468557   -1.6344186651    0.5625361771
C        1.1490958990   -0.9946478410   -0.7192619937
C        2.6110164726   -1.3468104541   -0.5681923248
H        6.4795855709    2.3853531690    0.0153856475
H        4.4792795420    2.8809587427   -1.3810047583
H        6.6805003675    0.1685640188    1.1353971044
H        2.7017131549    1.1752437780   -1.6588774051
H        4.8868403573   -1.5246737834    0.8685910295
H        1.7036630748   -1.0020897554    1.4432408720
H        1.3741185118   -2.6689872486    0.7615465655
H        0.5454512464   -1.5914344681   -1.3967141458
H        0.8701320358    0.0537575094   -0.6740990154
H        2.9382864203   -2.2253302451   -1.1218662548
19   
torsion grid (-90,)
C        5.7010327156    1.6325915591   -0.0995551723
C        4.5177581496    1.9408684000   -0.7752928114
C        5.8744224072    0.3479930353    0.4306400221
C        3.5144049836    0.9752505434   -0.9201314610
C        4.8688918305   -0.6094949607    0.2887690671
C        3.6716570563   -0.3109580761   -0.3855628763
C        1.5509100138   -1.5110569213    0.5683666358
C        1.1794053916   -1.0699451702   -0.8296598325
C        2.6232409265   -1.3736016961   -0.5033884263
H        6.4813017137    2.3813362272    0.0107630200
H        4.3760745815    2.9323885974   -1.1985423975
H        6.7922201491    0.0954674477    0.9561789756
H        2.6088143704    1.2253922194   -1.4654422373
H        5.0058180795   -1.6035903089    0.7096928187
H        1.5408606898   -0.7581836285    1.3510503119
H        1.2736949120   -2.5104441687    0.8918191150
H        0.6479639319   -1.7708655960   -1.4666308011
H        0.8838294863   -0.0345068733   -0.9644841526
H        2.9973316536   -2.3194555142   -0.8900305965
19   
torsion grid (-75,)
C        5.7160163683    1.6320635249   -0.1002188664
C        4.4808305075    1.9621375826   -0.6645944318
C        5.9398151530    0.3219783185    0.3390593386
C        3.4780664533    0.9942425125   -0.7885242685
C        4.9345179222   -0.6391987623    0.2186263949
C        3.6854211196   -0.3195125432   -0.3422198284
C        1.4667457807   -1.3822828430    0.5502585568
C        1.2344738741   -1.1475092140   -0.9239378168
C        2.6406155500   -1.3856763083   -0.4232907825
H        6.4962789158    2.3831716677   -0.0080977713
H        4.2982532305    2.9739475825   -1.0184863377
H        6.8978655479    0.0501774563    0.7755649355
H        2.5322916362    1.2694216473   -1.2463386780
H        5.1153314145   -1.6542411248    0.5667666738
H        1.3885362571   -0.5257939323    1.2134175953
H        1.1578632276   -2.3284911251    0.9855260166
H        0.7721384125   -1.9404327337   -1.5044708611
H        0.9519847117   -0.1482708507   -1.2384928321
H        3.0432198058   -2.3736079168   -0.6348072212
19   
torsion grid (-60,)
C        5.7241733387    1.6336083625   -0.1108874653
C        4.4431678806    1.9786672213   -0.5534840294
C        5.9915312925    0.3063350252    0.2402842476
C        3.4409426135    1.0086497377   -0.6445269312
C        4.9860235709   -0.6594905229    0.1520612094
C        3.6933694354   -0.3259120472   -0.2866569621
C        1.3793583398   -1.2657537507    0.4935458678
C        1.3055485331   -1.2154692048   -1.0129970661
C        2.6502005210   -1.3920234079   -0.3409573544
H        6.5040997528    2.3877048432   -0.0445625580
H        4.2246045953    3.0057115928   -0.8358836391
H        6.9839898904    0.0224737116    0.5818918020
H        2.4563496316    1.3011136524   -0.9994032021
H        5.2040976213   -1.6890262607    0.4287185108
H        1.2496156238   -0.3345169132    1.0372523904
H        1.0120015885   -2.1499151740    1.0067172937
H        0.8976137695   -2.0754803508   -1.5360324611
H        1.0820796323   -0.2643485865   -1.4854340602
H        3.0599034562   -2.3977858595   -0.3892274232
19   
torsion grid (-45,)
C        5.7233522620    1.6280851600   -0.1376015427
C        4.4066626224    1.9840686442   -0.4506782538
C        6.0225404950    0.2896877504    0.1333233407
C        3.4023042049    1.0146191477   -0.4931940549
C        5.0144852402   -0.6779072815    0.0918253115
C        3.6888342386   -0.3340866445   -0.2190909331
C        1.2897057453   -1.1715946195    0.4196880805
C        1.3833592953   -1.2797883982   -1.0812867660
C        2.6428685644   -1.3964147374   -0.2428174454
H        6.5041744514    2.3835241474   -0.1071284285
H        4.1618633185    3.0214599701   -0.6656367098
H        7.0412139498   -0.0026881461    0.3763487686
H        2.3876010874    1.3176040737   -0.7402246875
H        5.2587093021   -1.7166626199    0.3043652265
H        1.1159654156   -0.1900364901    0.8510488631
H        0.8504528614   -1.9956732729    0.9744753888
H        1.0150976721   -2.1845537542   -1.5561323261
H        1.2521970613   -0.3793479651   -1.6736216528
H        3.0403813469   -2.4030347312   -0.1438805213
19   
torsion grid (-30,)
C        5.7165597222    1.6201887724   -0.1752842201
C        4.3781664296    1.9876386165   -0.3552794933
C        6.0350101856    0.2734592983    0.0218077633
C        3.3713492590    1.0202001205   -0.3379754620
C        5.0240098215   -0.6919896661    0.0372399043
C        3.6770435565   -0.3382742143   -0.1434072570
C        1.2128910323   -1.1224005068    0.3475860292
C        1.4730331680   -1.3730054351   -1.1145777436
C        2.6304343604   -1.3998409323   -0.1249416341
H        6.4991936186    2.3742405905   -0.1876885679
H        4.1179615758    3.0322938733   -0.5080424711
H        7.0702636143   -0.0269354428    0.1642200613
H        2.3392231882    1.3320474206   -0.4797810530
H        5.2831184212   -1.7373638684    0.1915862702
H        0.9804718503   -0.1101725892    0.6645753285
H        0.7163698392   -1.8977647466    0.9238023475
H        1.1512582388   -2.3168761880   -1.5451294407
H        1.4308395512   -0.5275020581   -1.7950046495
H        3.0124409224   -2.3892275241    0.1118489009
19   
torsion grid (-15,)
C        5.7261667492    1.6178281869   -0.2089649473
C        4.3847900508    2.0119751219   -0.2532446230
C        6.0348653603    0.2587554321   -0.0934692852
C        3.3644666532    1.0598088177   -0.1823704269
C        5.0119806815   -0.6907863171   -0.0268247443
C        3.6605051440   -0.3093826996   -0.0744361991
C        1.1469755864   -1.0628135971    0.2550740310
C        1.5685377851   -1.4619820110   -1.1350512500
C        2.6066342132   -1.3643966427   -0.0197525290
H        6.5188588227    2.3596834811   -0.2601502480
H        4.1313299363    3.0660357734   -0.3372001380
H        7.0728062368   -0.0627307992   -0.0538494963
H        2.3307010591    1.3938803119   -0.2129246269
H        5.2635819182   -1.7456367603    0.0624427521
H        0.8581612906   -0.0315532707    0.4312798608
H        0.5962273185   -1.7843878571    0.8514883819
H        1.2993232871   -2.4495491117   -1.4988279006
H        1.6046606281   -0.6888859465   -1.8970285076
H        2.9623091236   -2.3196591892    0.3572471488
19   
torsion grid (0,)
C        5.7232573541    1.6174749664   -0.2300257928
C        4.3914204508    2.0318810752   -0.1399053739
C        6.0153949887    0.2489254045   -0.2097966445
C        3.3619927021    1.0909262634   -0.0316010501
C        4.9851676321   -0.6878757737   -0.1071610470
C        3.6411078570   -0.2843015520   -0.0215894618
C        1.1018668064   -1.0255117896    0.1430643607
C        1.6695028178   -1.5886292997   -1.1366486508
C        2.5803680949   -1.3337411687    0.0614691454
H        6.5228362827    2.3494621110   -0.3095347322
H        4.1514313200    3.0923947517   -0.1449179415
H        7.0471191388   -0.0882347859   -0.2738333737
H        2.3365050112    1.4388656190    0.0532597918
H        5.2221860731   -1.7499061779   -0.0957023601
H        0.7817733854    0.0111763973    0.1455412117
H        0.4932482426   -1.6760237522    0.7643578883
H        1.4447439787   -2.6182401278   -1.4004864438
H        1.7786622285   -0.9130170280   -1.9798801484
H        2.8952646517   -2.2321836720    0.5867271270
19   
torsion grid (15,)
C        5.7109565928    1.6165040797   -0.2325092426
C        4.3978703801    2.0422127576   -0.0167376476
C        5.9823296576    0.2454768043   -0.3201618648
C        3.3638407583    1.1069691596    0.1091701900
C        4.9468720510   -0.6826990024   -0.1997944491
C        3.6203010430   -0.2679011331    0.0130054296
C        1.0753031741   -0.9855491787    0.0194043991
C        1.7578442541   -1.7245639606   -1.1091983345
C        2.5481482355   -1.3064815731    0.1237208805
H        6.5148301437    2.3420278221   -0.3272317782
H        4.1765664438    3.1038655092    0.0624039370
H        7.0007387248   -0.0982736110   -0.4844355476
H        2.3521820872    1.4552773358    0.2966036733
H        5.1634756078   -1.7463947537   -0.2759868127
H        0.7767482234    0.0414445559   -0.1643683156
H        0.3936196311   -1.5384359628    0.6589645683
H        1.5442090851   -2.7806621560   -1.2478489233
H        1.9504276053   -1.1724446157   -2.0243618534
H        2.7973671799   -2.1247078387    0.7963169003
19   
torsion grid (30,)
C        5.7054575631    1.6283378474   -0.2425750716
C        4.4203824465    2.0594514778    0.0969269767
C        5.9431325861    0.2625969888   -0.4415921805
C        3.3801603189    1.1330810757    0.2368279901
C        4.9013951648   -0.6568632797   -0.3055226218
C        3.6044555935   -0.2355329083    0.0344636025
C        1.0666044956   -0.9303075864   -0.0965128214
C        1.8300475529   -1.8334440133   -1.0421846078
C        2.5156013393   -1.2543023188    0.1835070413
H        6.5141835156    2.3466307695   -0.3509004249
H        4.2267001741    3.1171860691    0.2582126233
H        6.9394750483   -0.0829582541   -0.7065639315
H        2.3874408102    1.4770766428    0.5145822283
H        5.0878537555   -1.7160856686   -0.4704799539
H        0.8244404942    0.0665131938   -0.4520389272
H        0.3106400300   -1.3741836323    0.5445169258
H        1.5996194637   -2.8950183303   -1.0485114981
H        2.1120945983   -1.4216184954   -2.0068236929
H        2.6847665510   -1.9685202377    0.9875997668
19   
torsion grid (45,)
C        5.6984786947    1.6330340941   -0.2371899315
C        4.4468880387    2.0613914520    0.2157839301
C        5.8947072250    0.2821093031   -0.5469364563
C        3.4001385419    1.1442902238    0.3589403624
C        4.8452509074   -0.6292378745   -0.4043593725
C        3.5845397234   -0.2110250871    0.0505078375
C        1.0709620477   -0.9069045391   -0.2333793211
C        1.9020224958   -1.9411742592   -0.9657618193
C        2.4788234755   -1.2082063534    0.2286978491
H        6.5125590051    2.3444624712   -0.3509139718
H        4.2856250990    3.1091137194    0.4578751644
H        6.8639037006   -0.0587708391   -0.9030134832
H        2.4290442145    1.4806323009    0.7140889849
H        4.9973549960   -1.6772162848   -0.6534783501
H        0.8978734844    0.0394561408   -0.7374262132
H        0.2429839721   -1.2508854321    0.3796144588
H        1.6421268985   -2.9895328357   -0.8502508163
H        2.2839658000   -1.6720417836   -1.9463415053
H        2.5538699694   -1.7996378447    1.1401230432
19   
torsion grid (60,)
C        5.7002071939    1.6383317454   -0.2377071810
C        4.4925876239    2.0541568640    0.3342641411
C        5.8420521028    0.3126986140   -0.6606411711
C        3.4377829228    1.1488997912    0.4806862159
C        4.7839803357   -0.5895618235   -0.5108690023
C        3.5690278460   -0.1836969630    0.0603736798
C        1.0916188082   -0.9108453588   -0.3777022293
C        1.9724073565   -2.0372939019   -0.8796261841
C        2.4449996906   -1.1569726118    0.2563140995
H        6.5207854352    2.3415700097   -0.3557002897
H        4.3727481471    3.0837544309    0.6627366864
H        6.7763094308   -0.0179704506   -1.1080122155
H        2.4976426840    1.4754079460    0.9197099449
H        4.8967021197   -1.6194065479   -0.8416455058
H        0.9905860514   -0.0352846739   -1.0125719199
H        0.2019257738   -1.1654182642    0.1910541984
H        1.6816450588   -3.0590194710   -0.6531812224
H        2.4472745017   -1.9051810435   -1.8475457605
H        2.4177527793   -1.6157076786    1.2437540548
19   
torsion grid (75,)
C        5.6935686658    1.6385037015   -0.2327887011
C        4.5378087059    2.0285837879    0.4549638219
C        5.7745717953    0.3487484993   -0.7649218853
C        3.4750884504    1.1348253919    0.6025918440
C        4.7082506529   -0.5447637976   -0.6106323477
C        3.5437714242   -0.1635105193    0.0699978628
C        1.1165337149   -0.9390862765   -0.5315084799
C        2.0184055088   -2.1300803844   -0.7786245535
C        2.3961879931   -1.1074139542    0.2680730045
H        6.5208701036    2.3335976904   -0.3518116204
H        4.4652805558    3.0302037927    0.8718784688
H        6.6694857608    0.0354089088   -1.2971595185
H        2.5749027473    1.4439147316    1.1297907047
H        4.7834717752   -1.5498876805   -1.0174233689
H        1.1031395623   -0.1570824873   -1.2851694425
H        0.1691056370   -1.1013681839   -0.0254299601
H        1.6852517561   -3.1078193625   -0.4431025581
H        2.5823626273   -2.1413000684   -1.7064640786
H        2.2515623532   -1.4212202260    1.3005751881
19   
torsion grid (90,)
C        5.6875686958    1.6389370130   -0.2199749925
C        4.5918604378    1.9929392259    0.5771613705
C        5.6974852545    0.3966217963   -0.8590741107
C        3.5189037360    1.1123061658    0.7232697597
C        4.6214486090   -0.4856010181   -0.7047070486
C        3.5144983040   -0.1392502631    0.0824657594
C        1.1524514223   -0.9671149518   -0.6860349037
C        2.0310937971   -2.1978217139   -0.6574826816
C        2.3358494771   -1.0437109295    0.2686479080
H        6.5239962603    2.3231980141   -0.3373434762
H        4.5743598278    2.9560459250    1.0815742733
H        6.5470338949    0.1079902835   -1.4733178600
H        2.6665569599    1.3958685312    1.3374787791
H        4.6533499884   -1.4557002383   -1.1925053851
H        1.2522302513   -0.3013224046   -1.5382353782
H        0.1515862835   -1.0294494555   -0.2682755683
H        1.6318389632   -3.1070171563   -0.2177196074
H        2.6810076413   -2.3647314295   -1.5104396308
H        2.0628901189   -1.2012356925    1.3102310582
19   
torsion grid (105,)
C        5.6909374062    1.6495539694   -0.2142328059
C        4.6565319944    1.9580898268    0.6768313267
C        5.6277458153    0.4629666694   -0.9499844219
C        3.5731408176    1.0895185621    0.8216640707
C        4.5428750379   -0.4072638939   -0.7977415036
C        3.4968963089   -0.1074784739    0.0880040752
C        1.2259729650   -1.0260472641   -0.8315694955
C        2.0585354350   -2.2491849822   -0.5260749518
C        2.2933308978   -0.9776492932    0.2566697595
H        6.5358048603    2.3235406246   -0.3299557337
H        4.6939163641    2.8766538543    1.2574413292
H        6.4285035073    0.2084428028   -1.6401543957
H        2.7703579645    1.3403978264    1.5121691936
H        4.5230691202   -1.3308251377   -1.3691456483
H        1.4431342058   -0.4872161569   -1.7491423582
H        0.1830625642   -1.0127777063   -0.5277473529
H        1.5866042391   -3.0759794524   -0.0034307035
H        2.7955099372   -2.5552119257   -1.2612359479
H        1.8984194393   -0.9818421812    1.2700235123
19   
torsion grid (120,)
C        5.6935435245    1.6399171285   -0.2026051791
C        4.7180983709    1.9080654879    0.7632087112
C        5.5494863427    0.5185104218   -1.0259652098
C        3.6134283699    1.0635636423    0.8990570474
C        4.4450935617   -0.3261840761   -0.8843776716
C        3.4586967259   -0.0692622747    0.0822308365
C        1.2881007403   -1.1095749287   -0.9419231479
C        2.0760935613   -2.2766585930   -0.3993254791
C        2.2365730859   -0.9117593960    0.2359244571
H        6.5544283474    2.2944357934   -0.3113546150
H        4.8164647202    2.7761872907    1.4104593493
H        6.3019750983    0.2978877323   -1.7792375817
H        2.8581599416    1.2837148243    1.6508011554
H        4.3591952784   -1.1932842810   -1.5338958446
H        1.6018584707   -0.6846597415   -1.8909502247
H        0.2193041016   -1.0662571437   -0.7526397034
H        1.5468875473   -3.0311206663    0.1754037030
H        2.8925564709   -2.6685986950   -0.9974106223
H        1.7439747681   -0.7915088861    1.1975157884
19   
torsion grid (135,)
C        5.7117626990    1.6207646548   -0.1826316499
C        4.7807287375    1.8523718831    0.8340879662
C        5.4929013124    0.5719162666   -1.0828783829
C        3.6459878658    1.0437400607    0.9467921339
C        4.3591687349   -0.2351737716   -0.9665870129
C        3.4162350808   -0.0143847141    0.0525383063
C        1.3455348195   -1.2028847040   -1.0270572041
C        2.1047609483   -2.2753225581   -0.2879348721
C        2.1809828029   -0.8374599522    0.1928357688
H        6.5951852428    2.2473870921   -0.2732900251
H        4.9365174606    2.6639824758    1.5406546124
H        6.2093255880    0.3814194875   -1.8783469910
H        2.9273462635    1.2347464585    1.7410979968
H        4.2126236899   -1.0432151222   -1.6793841280
H        1.7255488547   -0.8805324424   -1.9921243353
H        0.2640042245   -1.1711874230   -0.9315658164
H        1.5429639523   -2.9765971041    0.3222202213
H        2.9887457534   -2.6981418331   -0.7556389899
H        1.6104003487   -0.6201251942    1.0918887574
19   
torsion grid (150,)
C        5.7367080757    1.5987874331   -0.1557446691
C        4.8370603237    1.7862119309    0.8975634500
C        5.4561825471    0.6346909927   -1.1306833102
C        3.6715865382    1.0178175583    0.9731939121
C        4.2906762913   -0.1304120406   -1.0527024441
C        3.3766488788    0.0488247047    0.0005715855
C        1.3970355204   -1.2964209353   -1.0931735520
C        2.1308361606   -2.2503615654   -0.1874022248
C        2.1305942314   -0.7600605618    0.1252109218
H        6.6436709777    2.1945210610   -0.2174633904
H        5.0418905078    2.5311171009    1.6626650016
H        6.1480285681    0.4789730788   -1.9549683109
H        2.9793091796    1.1719414264    1.7983207808
H        4.0962801218   -0.8731669201   -1.8228665229
H        1.8232079692   -1.0796841370   -2.0681321272
H        0.3112121764   -1.2911143516   -1.0670188149
H        1.5511564516   -2.9041671587    0.4578515261
H        3.0654358558   -2.6763341651   -0.5405132028
H        1.4946318163   -0.4625786873    0.9545973919
19   
torsion grid (165,)
C        5.7606199799    1.5789931573   -0.1353040669
C        4.8910794583    1.7062885875    0.9524123557
C        5.4246880468    0.7117750728   -1.1803125760
C        3.7022423508    0.9729030763    0.9911149746
C        4.2334030714   -0.0171947562   -1.1397673779
C        3.3496393565    0.1025433408   -0.0538839034
C        1.4529771877   -1.3955129294   -1.1257978986
C        2.1390025239   -2.2130973243   -0.0626200688
C        2.0918150194   -0.6922113384    0.0557982443
H        6.6862594401    2.1476392516   -0.1692641044
H        5.1387442992    2.3758861782    1.7725014680
H        6.0917471850    0.6045820953   -2.0322975589
H        3.0348148842    1.0769025646    1.8441635032
H        3.9956621817   -0.6822765814   -1.9659462827
H        1.9310816168   -1.3056935277   -2.0961003123
H        0.3677277680   -1.4107054537   -1.1664312152
H        1.5303590675   -2.7986804496    0.6205666074
H        3.1048668077   -2.6489358457   -0.3009194574
H        1.3967629942   -0.3138374510    0.8007294233
19   
torsion grid (180,)
C        5.7677893997    1.5585776275   -0.1278706035
C        4.9326771316    1.6038549134    0.9941656283
C        5.3812241771    0.8004146264   -1.2367807057
C        3.7300209423    0.8944842631    1.0029536584
C        4.1733047013    0.0952641590   -1.2265490537
C        3.3286300211    0.1295058510   -0.1062582706
C        1.5176173164   -1.5017423440   -1.1463214652
C        2.0964347523   -2.1668011553    0.0776054149
C        2.0531210684   -0.6439554304   -0.0210568344
H        6.7048149808    2.1092977327   -0.1383000778
H        5.2196296392    2.1909533112    1.8632017064
H        6.0183520944    0.7619916247   -2.1170692133
H        3.0898931406    0.9310568802    1.8822112494
H        3.8894198129   -0.4765085312   -2.1054874451
H        2.0793438313   -1.5608757754   -2.0727246393
H        0.4402916905   -1.5250032650   -1.2820594574
H        1.4229061476   -2.6549930779    0.7763540075
H        3.0745800750   -2.6294765867   -0.0150410102
H        1.2967535973   -0.1732493856    0.6023247788
