17   
torsion grid (-165,)
C        0.9254000965   -0.5174401009   -1.0444212007
C        1.2311429973    0.0298260941    0.3514332738
N        1.5871484682    1.4544829400    0.3348088679
C        2.9581596237    1.7975795468   -0.0293272937
C        0.6293872172    2.4166993177    0.4590776908
S       -1.0003648523    2.1147733682    0.7832887277
N        1.0648614816    3.7152441828    0.3506523355
H        0.6809531767   -1.5834912092   -0.9865563730
H        0.0685479093    0.0093920344   -1.4730003122
H        1.7819608600   -0.4033268009   -1.7184745964
H        0.3633747947   -0.0853873910    1.0002576799
H        2.0671305218   -0.5110017969    0.8075299632
H        3.0274681717    2.2325283037   -1.0362827938
H        3.3962176587    2.4954584315    0.6936423143
H        3.5642701388    0.8913529579   -0.0211795595
H        0.3350941219    4.4133295466    0.3227418394
H        1.9589384473    3.9584752960   -0.0530868386
17   
torsion grid (-150,)
C        0.9191536603   -0.4914022906   -1.0647313504
C        1.2313727948    0.0254729451    0.3414377953
N        1.5942744988    1.4481873471    0.3515312516
C        2.9702249471    1.7908168469    0.0047461804
C        0.6430449838    2.4124015222    0.4934961610
S       -0.9778798844    2.1199037800    0.8565521495
N        1.0939220477    3.7152920601    0.3754012112
H        0.6678231656   -1.5567047673   -1.0280080210
H        0.0646080886    0.0488273783   -1.4814022425
H        1.7751844683   -0.3692543703   -1.7378785849
H        0.3654587036   -0.0988102102    0.9911080799
H        2.0667077662   -0.5283177543    0.7825039761
H        3.0690511707    2.1421912658   -1.0326780425
H        3.3592142848    2.5589613877    0.6803717218
H        3.5938006243    0.9023433399    0.1113833119
H        0.3393916321    4.3894421329    0.3478060254
H        1.8643378808    3.9191441075   -0.2505358982
17   
torsion grid (-135,)
C        0.9135535842   -0.4706715741   -1.0786536542
C        1.2331910677    0.0221549205    0.3347349682
N        1.6033658241    1.4423794546    0.3654259381
C        2.9841888473    1.7812506401    0.0316535263
C        0.6586773137    2.4092988345    0.5144213525
S       -0.9625949497    2.1271845944    0.8737246600
N        1.1305924763    3.7147422839    0.3814258110
H        0.6553054568   -1.5346518362   -1.0575782513
H        0.0611852465    0.0808670254   -1.4849472936
H        1.7686846179   -0.3439127328   -1.7518692814
H        0.3692698349   -0.1087737968    0.9859116232
H        2.0683117422   -0.5421158184    0.7623623963
H        3.1085348320    2.0477590107   -1.0281252906
H        3.3293090556    2.6140931170    0.6492761245
H        3.6191953386    0.9168412132    0.2327722945
H        0.3623314640    4.3754881569    0.4242644022
H        1.7365890810    3.8965612279   -0.4136956013
17   
torsion grid (-120,)
C        0.9167707212   -0.4586926102   -1.0869980411
C        1.2323597789    0.0216548624    0.3318207813
N        1.6105592857    1.4392517141    0.3741922063
C        2.9957609398    1.7674960918    0.0435017666
C        0.6732351891    2.4098335954    0.5261521429
S       -0.9544058768    2.1382316205    0.8546129718
N        1.1696980723    3.7183335451    0.3862009666
H        0.6501198942   -1.5206297502   -1.0742485605
H        0.0706664648    0.1016390449   -1.4944208042
H        1.7765026097   -0.3345401183   -1.7545419940
H        0.3643129320   -0.1094310833    0.9775165043
H        2.0629579016   -0.5500100337    0.7583687157
H        3.1362807777    1.9515516118   -1.0312012106
H        3.3107810895    2.6537941763    0.5967875787
H        3.6352207958    0.9289186273    0.3266509563
H        0.4036708821    4.3698981935    0.5323837389
H        1.5851993756    3.9011952334   -0.5256739943
17   
torsion grid (-105,)
C        0.9047758304   -0.4498497027   -1.0929990353
C        1.2395136606    0.0210189784    0.3247894473
N        1.6223466718    1.4377873442    0.3709290400
C        3.0168969071    1.7532781757    0.0620008412
C        0.6869618790    2.4082374314    0.5140846750
S       -0.9490768209    2.1368123099    0.7883440749
N        1.2014213479    3.7237307598    0.3773301814
H        0.6366462999   -1.5113728092   -1.0823365982
H        0.0544288235    0.1136629600   -1.4864249063
H        1.7566363481   -0.3235623516   -1.7699057153
H        0.3794469619   -0.1134939211    0.9808117742
H        2.0755399517   -0.5542022290    0.7350233061
H        3.1902788701    1.8297656244   -1.0201893816
H        3.2931039487    2.6977995446    0.5299983331
H        3.6551349203    0.9570486352    0.4525655713
H        0.4595895664    4.3635527709    0.6539765519
H        1.4160456666    3.9382812000   -0.5968944350
17   
torsion grid (-90,)
C        0.8906668253   -0.4450460574   -1.1029833191
C        1.2486192054    0.0237469069    0.3099091307
N        1.6328526292    1.4410537131    0.3511292651
C        3.0409434144    1.7331523737    0.0784790052
C        0.6986998164    2.4102466939    0.4868530813
S       -0.9424647997    2.1344570905    0.7151076607
N        1.2246953982    3.7368838774    0.3655865394
H        0.6274578790   -1.5076981891   -1.0886860191
H        0.0313050615    0.1152111011   -1.4803720487
H        1.7304607100   -0.3142990295   -1.7937312679
H        0.3995127608   -0.1135035895    0.9800828269
H        2.0931262907   -0.5506691256    0.7030612089
H        3.2683230252    1.6344180042   -0.9910067140
H        3.2729432289    2.7468037565    0.3981767291
H        3.6654820178    1.0234704878    0.6286738809
H        0.5363586594    4.3508889177    0.7998415576
H        1.2207087107    4.0093777892   -0.6190177924
17   
torsion grid (-75,)
C        0.8816052956   -0.4523084125   -1.1144885436
C        1.2536010530    0.0289396564    0.2904587819
N        1.6375158553    1.4474169701    0.3135496960
C        3.0584837411    1.7173965956    0.0854560013
C        0.7050001665    2.4155978353    0.4419772034
S       -0.9390494086    2.1378226572    0.6371136363
N        1.2426399990    3.7526222064    0.3517471090
H        0.6219401616   -1.5155449274   -1.0874699093
H        0.0168376273    0.1023651227   -1.4869954156
H        1.7136656326   -0.3250488585   -1.8150387104
H        0.4114252619   -0.1044848377    0.9706359479
H        2.1042769873   -0.5396658250    0.6787405875
H        3.3480254829    1.4101772760   -0.9268980565
H        3.2544694574    2.7786404411    0.2110152713
H        3.6550372779    1.1444750670    0.8033931599
H        0.6587966183    4.3207319449    0.9665391996
H        1.0154196239    4.1093618092   -0.5786322342
17   
torsion grid (-60,)
C        0.9689706231   -0.4918316051   -1.1758463944
C        1.1753888113    0.0416937280    0.2428983616
N        1.5203650998    1.4705017435    0.2662941488
C        2.9346637094    1.7979694609    0.0899597126
C        0.5540294110    2.4253834939    0.3815443930
S       -1.0928779723    2.0983542389    0.3813683014
N        0.9993706859    3.7206985912    0.6798377678
H        0.7380497324   -1.5619634253   -1.1446851850
H        0.1344740270    0.0297411975   -1.6508052738
H        1.8657140769   -0.3577917280   -1.7915207884
H        0.2652480496   -0.0888000540    0.8286293476
H        1.9839995036   -0.4976437378    0.7484975229
H        3.4530001486    0.9208079910   -0.2995408583
H        3.0707252435    2.6043449693   -0.6375253426
H        3.4194605169    2.0787553630    1.0351291241
H        2.0074924462    3.8225542497    0.7541014576
H        0.6416167202    4.4157202441    0.0327674298
17   
torsion grid (-45,)
C        0.9694618436   -0.4691369909   -1.2016027502
C        1.1694673498    0.0301161399    0.2303680457
N        1.5324216255    1.4534433472    0.2851867699
C        2.9483159192    1.7794981027    0.1261566845
C        0.5775393156    2.4166593136    0.4139769510
S       -1.0756045856    2.1074039576    0.4800880386
N        1.0400636748    3.7101051033    0.6476191513
H        0.7225676156   -1.5361776157   -1.1973963586
H        0.1470519649    0.0746431287   -1.6733608482
H        1.8740209879   -0.3335354431   -1.8054122317
H        0.2527248273   -0.1002172446    0.8052285297
H        1.9652474188   -0.5308766283    0.7320246933
H        3.4945203982    0.8687164750   -0.1196076759
H        3.1125958344    2.4868269875   -0.6953996519
H        3.3823190490    2.1898474085    1.0474019542
H        2.0324031615    3.8708600383    0.5075646235
H        0.4945744325    4.4103186413    0.1582677993
17   
torsion grid (-30,)
C        0.9735065261   -0.4272461980   -1.2318628038
C        1.1639376600    0.0153467122    0.2202176563
N        1.5446379982    1.4299923290    0.3318785040
C        2.9588969977    1.7574724299    0.1692122964
C        0.5995284604    2.4018234193    0.4595920056
S       -1.0546966455    2.1146494488    0.6039761730
N        1.0801340757    3.6985965757    0.5915965397
H        0.7080514873   -1.4890835483   -1.2709312194
H        0.1662787440    0.1469584342   -1.6943910096
H        1.8879768139   -0.2851530236   -1.8188856133
H        0.2401720403   -0.1235932352    0.7813582180
H        1.9469032655   -0.5746527489    0.7079252277
H        3.5329350690    0.8320415012    0.1223692621
H        3.1533984832    2.3109685127   -0.7596031312
H        3.3334172881    2.3395743390    1.0191283658
H        2.0040922446    3.8946220090    0.2208338543
H        0.4005203248    4.3861777639    0.2886893989
17   
torsion grid (-15,)
C        0.9841635865   -0.4039019328   -1.2480486509
C        1.1580040122    0.0082487260    0.2153621562
N        1.5498609403    1.4158354657    0.3607829523
C        2.9628910454    1.7401668377    0.1892728556
C        0.6123326891    2.3948187811    0.4886356122
S       -1.0429033924    2.1252955604    0.6663910571
N        1.1041059393    3.6888229242    0.5374903397
H        0.7084344678   -1.4618556849   -1.3120334752
H        0.1893560026    0.1869833282   -1.7116045163
H        1.9081895481   -0.2603182136   -1.8193784017
H        0.2255123279   -0.1327185786    0.7611527240
H        1.9289797471   -0.5986308794    0.7015552099
H        3.5487600284    0.8239511343    0.2710285310
H        3.1769312338    2.1829315086   -0.7941961454
H        3.3013935333    2.4269695089    0.9716059585
H        1.9500897829    3.9089205059    0.0239646482
H        0.3735893409    4.3829757294    0.4391228693
17   
torsion grid (0,)
C        0.8968982248   -0.6914148016   -0.7553676860
C        1.3362115908    0.1003960981    0.4778836235
N        1.5969156717    1.5137016906    0.1780736719
C        2.9260168965    1.8493370429   -0.3247350017
C        0.6203917417    2.4524856521    0.2950461334
S       -0.9901695114    2.1199718048    0.6688327176
N        1.0283147052    3.7554056097    0.0755806714
H        0.7394014224   -1.7426424352   -0.4911276838
H       -0.0412798241   -0.2858614505   -1.1418998814
H        1.6513344033   -0.6516216845   -1.5491223259
H        0.5621763539    0.0594050153    1.2448209845
H        2.2556448382   -0.3173393935    0.9028966228
H        3.5816842956    2.2422505302    0.4659047070
H        3.3924919993    0.9485904119   -0.7277301113
H        2.8582076415    2.5850416300   -1.1301685367
H        1.9431584149    4.0577909708    0.3886506031
H        0.2822919687    4.4329980299    0.1635652161
17   
torsion grid (15,)
C        0.9033861041   -0.6761095319   -0.7682301311
C        1.3287860003    0.0960900271    0.4822965380
N        1.5992737435    1.5129147430    0.2076531100
C        2.9204970136    1.8507748710   -0.3163295025
C        0.6199299336    2.4501740497    0.3137687223
S       -0.9916389662    2.1178792776    0.6791030961
N        1.0110330365    3.7497120350    0.0282925258
H        0.7337751994   -1.7293123800   -0.5200276518
H       -0.0254352911   -0.2590298783   -1.1650690795
H        1.6708903392   -0.6321802809   -1.5491555021
H        0.5441614709    0.0482557291    1.2376779023
H        2.2400126122   -0.3316644206    0.9145877541
H        3.5508291062    2.3424705450    0.4384644598
H        3.4261219523    0.9343255719   -0.6230972065
H        2.8393936892    2.5014149756   -1.1920992850
H        1.9578183585    4.0252089115    0.2684666488
H        0.3108565308    4.4275704762    0.3048013257
17   
torsion grid (30,)
C        0.9110319794   -0.6522094931   -0.7883507199
C        1.3210420658    0.0899013478    0.4853565692
N        1.5997915412    1.5127040093    0.2471957707
C        2.9122273382    1.8507997400   -0.3004600845
C        0.6139879934    2.4457272715    0.3463970806
S       -0.9935625445    2.1050812376    0.7174413888
N        0.9770903284    3.7412331551   -0.0070751523
H        0.7294431898   -1.7090170504   -0.5654169431
H       -0.0082608559   -0.2207209444   -1.1921642100
H        1.6918430529   -0.5979292517   -1.5553016698
H        0.5259475810    0.0291259195    1.2282519772
H        2.2246491422   -0.3501816040    0.9207601396
H        3.4993503332    2.4666682387    0.3945527918
H        3.4711797358    0.9309632407   -0.4729011653
H        2.8248016011    2.3765223525   -1.2575573066
H        1.9583046800    3.9824476102    0.0983149803
H        0.3808236712    4.4273789417    0.4420602777
17   
torsion grid (45,)
C        0.9190848558   -0.6251695464   -0.8113576753
C        1.3136786233    0.0846522305    0.4854819916
N        1.5966553134    1.5136436435    0.2851120952
C        2.9054869531    1.8502864245   -0.2738053078
C        0.6016899517    2.4407760416    0.3819577928
S       -0.9946805408    2.0834533997    0.7776177305
N        0.9288627173    3.7329785822   -0.0321870388
H        0.7285774918   -1.6857852713   -0.6159575312
H        0.0076810496   -0.1804337459   -1.2190305442
H        1.7113645528   -0.5577261768   -1.5653443652
H        0.5098844781    0.0075518118    1.2168240640
H        2.2116621272   -0.3664067516    0.9208587955
H        3.4423060831    2.5691225578    0.3580859569
H        3.5113153000    0.9453952731   -0.3199451090
H        2.8284240444    2.2531793340   -1.2910708883
H        1.9219874951    3.9300058927   -0.1170359357
H        0.4957103372    4.4329710214    0.5608996935
17   
torsion grid (60,)
C        0.9189691241   -0.6078257349   -0.8339967852
C        1.3086575390    0.0809265485    0.4757336511
N        1.5855214132    1.5146730249    0.2960717358
C        2.9036887192    1.8575824351   -0.2370778893
C        0.5847213540    2.4359633814    0.4090309676
S       -0.9924163948    2.0657705260    0.8555972472
N        0.8761569405    3.7305907312   -0.0494540855
H        0.7306149867   -1.6720484680   -0.6573830434
H        0.0071220759   -0.1590657048   -1.2366334346
H        1.7128559844   -0.5252395881   -1.5847083787
H        0.5046741984   -0.0108020582    1.2048340569
H        2.2078925741   -0.3738509622    0.9040144175
H        3.3800733721    2.6498091343    0.3515746132
H        3.5452970294    0.9783406046   -0.1756737349
H        2.8641832833    2.1650805889   -1.2902689290
H        1.8390040417    3.8672975046   -0.3447032579
H        0.6626745921    4.4312927576    0.6541465736
17   
torsion grid (75,)
C        0.8630931602   -0.5999689825   -0.9207242894
C        1.3064776283    0.0762769766    0.3787949723
N        1.6364385194    1.4952337492    0.1867961781
C        3.0371047872    1.7710473421   -0.1398128548
C        0.6850819488    2.4492891734    0.2674039027
S       -0.9394722045    2.1513338249    0.5653573646
N        1.2028546260    3.7897424558    0.1334703882
H        0.6574763675   -1.6597345177   -0.7378429079
H       -0.0491039228   -0.1303013479   -1.2959514105
H        1.6385188812   -0.5331016653   -1.6912619356
H        0.5150450546    0.0102202686    1.1271239363
H        2.2017979902   -0.4090130345    0.7808362698
H        3.1391511370    2.7955956342   -0.4871199545
H        3.6705703578    1.6212161841    0.7432995429
H        3.3670835178    1.0796493466   -0.9221286770
H        0.4625544041    4.3269493043   -0.3182681103
H        1.2450185802    4.1940600089    1.0711313095
17   
torsion grid (90,)
C        0.8766997447   -0.6149131946   -0.9220156247
C        1.2914226081    0.0817232564    0.3760485133
N        1.6195247271    1.4987060070    0.1712921706
C        3.0197251299    1.7827730414   -0.1463601276
C        0.6663851366    2.4548446944    0.2351933077
S       -0.9651833158    2.1584562330    0.4998977385
N        1.1819686782    3.7856542430    0.1207191697
H        0.6720182117   -1.6731268273   -0.7288611060
H       -0.0296702846   -0.1537166401   -1.3211383432
H        1.6664882089   -0.5549783898   -1.6785381167
H        0.4850961261    0.0229385368    1.1089200329
H        2.1794272613   -0.3948413632    0.8045555098
H        3.1047311504    2.7743820444   -0.5851369038
H        3.6421112748    1.7319114263    0.7563531830
H        3.3846235025    1.0355193379   -0.8577762124
H        0.3920972096    4.3744015907   -0.1398601234
H        1.4522254636    4.1187607247    1.0478106568
17   
torsion grid (105,)
C        0.8883981584   -0.6244289442   -0.9262965355
C        1.2772031507    0.0837398325    0.3734037699
N        1.6037916277    1.4999302445    0.1645807229
C        3.0018502822    1.7961632722   -0.1459982766
C        0.6494122251    2.4579128043    0.2245916005
S       -0.9887472659    2.1619098797    0.4552037093
N        1.1545158740    3.7796559328    0.1167380237
H        0.6831610680   -1.6819278164   -0.7293438035
H       -0.0115628257   -0.1681389194   -1.3451451048
H        1.6914859510   -0.5676267925   -1.6691234985
H        0.4578589464    0.0276884034    1.0918078406
H        2.1579118797   -0.3872596285    0.8231297969
H        3.0722801720    2.7482831669   -0.6697188512
H        3.6121121671    1.8402945196    0.7661159405
H        3.4015173336    1.0048630227   -0.7865341686
H        0.3523574780    4.3993454714    0.0254301917
H        1.6361446107    4.0580902721    0.9722623672
17   
torsion grid (120,)
C        0.9022609473   -0.6270477550   -0.9350242449
C        1.2631691179    0.0816405837    0.3722475466
N        1.5894814233    1.4988472183    0.1718223418
C        2.9829784276    1.8075647519   -0.1430775737
C        0.6337846202    2.4580491580    0.2356752447
S       -1.0099528206    2.1606452885    0.4327764793
N        1.1239605240    3.7722756815    0.1277772140
H        0.6945423311   -1.6850695242   -0.7430850480
H        0.0104502910   -0.1713376281   -1.3717063998
H        1.7198852099   -0.5688430965   -1.6619156708
H        0.4295045340    0.0236973287    1.0734951527
H        2.1347411872   -0.3879228653    0.8412804409
H        3.0385877837    2.7060476875   -0.7582932884
H        3.5820498497    1.9564251346    0.7661608124
H        3.4158017132    0.9739066956   -0.7015802297
H        0.3379891801    4.4146340543    0.1753486790
H        1.7904565134    4.0149820077    0.8592022683
17   
torsion grid (135,)
C        0.9153631881   -0.6204655263   -0.9494278030
C        1.2505140733    0.0746678976    0.3717436328
N        1.5788469775    1.4944504315    0.1940839109
C        2.9657592886    1.8154296873   -0.1348031710
C        0.6211972519    2.4541899492    0.2648201539
S       -1.0266766095    2.1544029721    0.4378805727
N        1.0936568230    3.7619623645    0.1495301214
H        0.7019160956   -1.6800605466   -0.7726934494
H        0.0333585730   -0.1584852974   -1.3994363517
H        1.7474199717   -0.5566929111   -1.6595051225
H        0.4032632372    0.0099361757    1.0554123178
H        2.1118110390   -0.4000687685    0.8545054237
H        3.0072472287    2.6376114702   -0.8523296190
H        3.5487490943    2.0872561479    0.7568820257
H        3.4355788470    0.9408178971   -0.5889710532
H        0.3409512749    4.4245038187    0.3029813909
H        1.9107344788    3.9890389588    0.7104307444
17   
torsion grid (150,)
C        0.9284415161   -0.6033037815   -0.9709412395
C        1.2384618235    0.0632391058    0.3709266365
N        1.5727874863    1.4861076552    0.2314601872
C        2.9512886636    1.8168975717   -0.1203124160
C        0.6134044822    2.4465514143    0.3114918610
S       -1.0360814013    2.1440625199    0.4859091299
N        1.0670458411    3.7481105712    0.1806132284
H        0.7083367860   -1.6657447861   -0.8212175131
H        0.0568018458   -0.1292952126   -1.4289396638
H        1.7745613827   -0.5275368942   -1.6631834231
H        0.3769389461   -0.0118726251    1.0347571713
H        2.0871661746   -0.4245852269    0.8628353837
H        2.9826530480    2.5339860515   -0.9460211787
H        3.5084313757    2.2288461385    0.7334462213
H        3.4635309030    0.9093893367   -0.4423329805
H        0.3539699056    4.4336189127    0.3966999581
H        1.9919520541    3.9800239696    0.5259123619
17   
torsion grid (165,)
C        0.9326200090   -0.5702612843   -0.9983409543
C        1.2331956996    0.0471949577    0.3689647881
N        1.5769999948    1.4725698112    0.2847182049
C        2.9467055323    1.8102818922   -0.0921417109
C        0.6139317906    2.4325585410    0.3679001023
S       -1.0335422606    2.1261934212    0.5757368532
N        1.0476555269    3.7283440748    0.2195568435
H        0.6996556297   -1.6347651767   -0.8876437643
H        0.0709805002   -0.0726410280   -1.4505735291
H        1.7878376328   -0.4803205446   -1.6777295161
H        0.3653859959   -0.0450365206    1.0218115028
H        2.0738268034   -0.4629473614    0.8516689135
H        2.9768248542    2.4015027390   -1.0148469516
H        3.4654036860    2.3621748960    0.7038805006
H        3.5041820954    0.8899775841   -0.2671987397
H        0.3569890688    4.4379963949    0.4210562970
H        2.0210382740    3.9856723244    0.3142848843
17   
torsion grid (180,)
C        0.9281835783   -0.5426806241   -1.0237048299
C        1.2321635661    0.0354403489    0.3599978924
N        1.5829597306    1.4608611836    0.3146777678
C        2.9515424359    1.8029849052   -0.0593979697
C        0.6209718079    2.4219053018    0.4169037230
S       -1.0195225857    2.1158963505    0.6843914758
N        1.0479215976    3.7158005429    0.2846126457
H        0.6884524286   -1.6083486923   -0.9427031468
H        0.0693302353   -0.0281435006   -1.4625981420
H        1.7841495988   -0.4392710110   -1.7002953637
H        0.3646965495   -0.0700754144    1.0110266954
H        2.0703776464   -0.4922922124    0.8274896048
H        2.9999590266    2.3015220287   -1.0364622271
H        3.4260192121    2.4446034528    0.6942210103
H        3.5407615019    0.8882170000   -0.1253543608
H        0.3448797923    4.4345554388    0.3748341484
H        2.0068447110    3.9875196226    0.1234648008
