24   
torsion grid (-60,)
C        5.0230735373   -2.1380924391    4.4128752703
C        5.5591091818   -1.4149587996    3.3394534545
C        3.6182921260   -2.0411834968    4.6304934556
C        4.6684237984   -0.8915504890    2.3685971354
C        3.3445188780   -1.3052705105    2.4985997989
C       -0.1335478302   -1.5293243225    1.6013026381
C        0.1299230252   -0.1478492729    0.9821643191
C        1.2157934142   -2.2682691294    1.4659059704
C        1.5360635339    0.1914470544    1.4963255968
C        2.3132975282   -1.1554672925    1.4131403907
N        2.9239166742   -1.2678950615    3.7934198353
F        5.1466362972   -0.3474695787    1.2234369511
H        5.6717392153   -2.6776982631    5.0964359381
H        6.6321075860   -1.3157744768    3.2006634068
H        3.1688673698   -2.2925871519    5.5903569359
H       -0.3833118628   -1.4089449294    2.6613545755
H       -0.9586591807   -2.0678478327    1.1243752454
H        0.1307910680   -0.2167925780   -0.1133208086
H       -0.6159926367    0.6017447110    1.2662854868
H        1.3817180339   -2.9617056573    2.2941138272
H        1.2449934715   -2.8519588755    0.5402737472
H        2.0366741444    0.9840843949    0.9325564321
H        1.4783326411    0.5022104677    2.5440099865
H        2.8362707157   -1.2030353619    0.4536033864
24   
torsion grid (-45,)
C        5.0635389418   -2.0604937469    4.4594067240
C        5.5727183537   -1.4192591037    3.3257469094
C        3.6669313990   -2.0274956191    4.6585740380
C        4.6586688569   -0.9999481350    2.3488794794
C        3.3149079244   -1.3491179759    2.5012269400
C       -0.1576720516   -1.5228083506    1.5673110363
C        0.1223660194   -0.1259738783    0.9913417291
C        1.1860106795   -2.2691821662    1.4193543371
C        1.5276186319    0.1849950312    1.5256986316
C        2.2937766447   -1.1654255384    1.4093538549
N        2.8746614747   -1.4041892363    3.7806077119
F        5.1171486413   -0.4908854170    1.1765276946
H        5.7269362250   -2.5051673075    5.1951663889
H        6.6391496668   -1.2871822466    3.1667886637
H        3.2300591307   -2.2932705926    5.6200591904
H       -0.4136696704   -1.4317928085    2.6288457395
H       -0.9843323392   -2.0392486308    1.0690585695
H        0.1316557283   -0.1628074556   -0.1056869202
H       -0.6192765974    0.6217111165    1.2912477487
H        1.3401795050   -2.9885841696    2.2270003104
H        1.2167932304   -2.8234554590    0.4757477258
H        2.0383027378    0.9902166156    0.9891529929
H        1.4635558116    0.4674179629    2.5813183797
H        2.8220393547   -1.1891151916    0.4526003359
24   
torsion grid (-30,)
C        5.1364582763   -2.0181129147    4.5364505240
C        5.6278318162   -1.4706996956    3.3485097233
C        3.7463990970   -2.0339770804    4.7255233369
C        4.7001494674   -1.1285462622    2.3672812065
C        3.3402049189   -1.4047387692    2.5470100631
C       -0.1409416025   -1.5297441974    1.5186903180
C        0.1796449354   -0.1169280960    1.0044620591
C        1.2044502644   -2.2862106662    1.4318583564
C        1.5625486587    0.1579834018    1.6107542551
C        2.3198957068   -1.1915026260    1.4581499501
N        2.8959010199   -1.5541756181    3.8108101082
F        5.1471545662   -0.6668744657    1.1691431600
H        5.8100521879   -2.3735377107    5.3105283885
H        6.6901096414   -1.3370289076    3.1657468754
H        3.3201429946   -2.3032746619    5.6905880919
H       -0.4630691139   -1.4690222963    2.5642732265
H       -0.9393090653   -2.0230952607    0.9553205412
H        0.2391010437   -0.1156315402   -0.0916090568
H       -0.5677156093    0.6282951443    1.2961534473
H        1.3203621605   -2.9941921660    2.2553420764
H        1.2716630985   -2.8535220647    0.4980952431
H        2.0995073270    0.9848690160    1.1359387738
H        1.4568494770    0.3892067239    2.6759294438
H        2.8460373812   -1.1884370363    0.5003839978
24   
torsion grid (-15,)
C        5.1860526311   -1.9070730797    4.4948958823
C        5.6665316352   -1.5075444729    3.2465754360
C        3.8012467695   -1.9120812983    4.6964815103
C        4.7282398358   -1.2199530748    2.2631283298
C        3.3552400547   -1.3627015776    2.4944762549
C       -0.1306761871   -1.5284338341    1.3793916356
C        0.1772852311   -0.0799993669    0.9638272818
C        1.2392985138   -2.2483695528    1.3428907167
C        1.5264568498    0.1889250222    1.6433154114
C        2.3235090481   -1.1241797354    1.4215371849
N        2.9219157563   -1.5586737968    3.7528713670
F        5.1697100263   -0.8632583984    1.0263967223
H        5.8657165699   -2.1821652272    5.2959616540
H        6.7274454993   -1.4315220584    3.0266914204
H        3.3869632695   -2.1415409141    5.6768901266
H       -0.5233555365   -1.5343997670    2.4022467752
H       -0.8766779802   -2.0092506049    0.7388556573
H        0.2832948915   -0.0109198672   -0.1265015766
H       -0.6007484454    0.6289095300    1.2655970024
H        1.3404350663   -2.9523634134    2.1716216548
H        1.3630267168   -2.8140793803    0.4141819048
H        2.0551861332    1.0625153961    1.2490801625
H        1.3759085851    0.3390096429    2.7176763733
H        2.8398167220   -1.0565269573    0.4612586703
24   
torsion grid (0,)
C        5.1850040715   -1.8158654763    4.5101708946
C        5.6608931058   -1.5240402767    3.2308918972
C        3.8009086472   -1.8663780275    4.7032231158
C        4.7204532016   -1.3019925025    2.2339257731
C        3.3455632827   -1.3681643534    2.4874949779
C       -0.1408358445   -1.5238273648    1.3690727810
C        0.1602182885   -0.0621894062    0.9971247497
C        1.2319752858   -2.2363318974    1.3089104781
C        1.5094383554    0.1919302700    1.6823727314
C        2.3117838706   -1.1107238870    1.4203821754
N        2.9121633242   -1.6514743597    3.7278316054
F        5.1608302732   -1.0113829470    0.9794692167
H        5.8677759719   -1.9995432331    5.3344768589
H        6.7210631878   -1.4672497875    3.0017215643
H        3.3894591189   -2.0908185676    5.6859468668
H       -0.5318650439   -1.5625922503    2.3918787058
H       -0.8858802914   -1.9880152529    0.7152833288
H        0.2645826462    0.0401468828   -0.0907557360
H       -0.6202869520    0.6341321779    1.3209776317
H        1.3378434297   -2.9644015078    2.1156940048
H        1.3572075512   -2.7722203237    0.3628825850
H        2.0329708157    1.0797659884    1.3136536205
H        1.3592490768    0.3102458629    2.7609118282
H        2.8264474291   -1.0124460146    0.4620961596
24   
torsion grid (15,)
C        5.3326924017   -1.6793097586    4.4728247880
C        5.7779537227   -1.5662021407    3.1543311888
C        3.9520891847   -1.6984446628    4.7037730326
C        4.8168945077   -1.3981595813    2.1640983878
C        3.4565844947   -1.3064569502    2.4786532776
C       -0.0153556834   -1.5837587524    1.1894088217
C        0.2287739637   -0.0778018757    0.9801753154
C        1.3979869670   -2.2211476637    1.2434265606
C        1.5117263555    0.1800945399    1.7807713931
C        2.4016283333   -1.0381095816    1.4357474745
N        3.0481113649   -1.6109059259    3.7232028651
F        5.2276141830   -1.2444468324    0.8766216919
H        6.0355456503   -1.7755469575    5.2951247992
H        6.8316385857   -1.5920880493    2.8919165333
H        3.5625333626   -1.8639323614    5.7068718595
H       -0.5264625677   -1.7381121746    2.1458650245
H       -0.6455651491   -2.0232633974    0.4100820362
H        0.4017136701    0.1360230361   -0.0823413337
H       -0.6122892021    0.5419177305    1.3077206034
H        1.4772372023   -2.9302136101    2.0702797908
H        1.6335249731   -2.7632023552    0.3226303768
H        1.9985450803    1.1306847390    1.5395574994
H        1.2922730549    0.1727597824    2.8538514869
H        2.9017531136   -0.8399966499    0.4846437170
24   
torsion grid (30,)
C        5.3151309868   -1.5882073153    4.4757373354
C        5.7660045686   -1.5795986041    3.1529998386
C        3.9310252756   -1.6606078866    4.7010538389
C        4.8096594229   -1.4832359212    2.1421266307
C        3.4603101623   -1.3226446919    2.4709245338
C       -0.0124591774   -1.5767311938    1.1786211858
C        0.2291146508   -0.0654549529    1.0096630955
C        1.4016120259   -2.2134076504    1.2084803513
C        1.5137427214    0.1719861976    1.8140248019
C        2.4046484474   -1.0357064422    1.4341282104
N        3.0555129179   -1.7186632900    3.6934343189
F        5.2221982916   -1.3846351710    0.8515669946
H        6.0167350604   -1.5871805184    5.3047152338
H        6.8222213975   -1.6164896245    2.9019209287
H        3.5397428590   -1.8289581022    5.7029995999
H       -0.5187072522   -1.7577046600    2.1330294673
H       -0.6459069237   -1.9954389228    0.3905149482
H        0.3995346160    0.1774253116   -0.0469959419
H       -0.6116572304    0.5443757138    1.3559682755
H        1.4853529021   -2.9474139443    2.0125130570
H        1.6354449085   -2.7248902162    0.2699823841
H        1.9982576870    1.1298867750    1.5984181815
H        1.2956908662    0.1350868151    2.8869917144
H        2.9057383267   -0.8104394878    0.4892872077
24   
torsion grid (45,)
C        5.2950520869   -1.4982447722    4.4671075656
C        5.7583457700   -1.6057386893    3.1519871624
C        3.9060210964   -1.6184631308    4.6830080219
C        4.8072713972   -1.5842668221    2.1221634971
C        3.4721826996   -1.3385143995    2.4535860915
C       -0.0026062649   -1.5758235336    1.1591153593
C        0.2308488505   -0.0582929612    1.0427670426
C        1.4144542788   -2.2064071919    1.1692283937
C        1.5155421707    0.1583365272    1.8530542832
C        2.4120433751   -1.0310933351    1.4299882470
N        3.0774452878   -1.8243678457    3.6539904758
F        5.2227994587   -1.5534181816    0.8299618799
H        5.9881479581   -1.3994141655    5.2971889314
H        6.8173361311   -1.6559462234    2.9154864640
H        3.5055405738   -1.7813850927    5.6825102508
H       -0.5095793033   -1.7927516001    2.1055973935
H       -0.6324661891   -1.9698868896    0.3556059346
H        0.3985354559    0.2222305987   -0.0049217256
H       -0.6123600200    0.5348672025    1.4112937798
H        1.5030007851   -2.9622937330    1.9518473888
H        1.6517949543   -2.6879248117    0.2160301982
H        1.9939906490    1.1260745375    1.6705182126
H        1.2988650904    0.0829369592    2.9244163273
H        2.9101493519   -0.7719823968    0.4915606718
24   
torsion grid (60,)
C        5.2458955572   -1.3981851243    4.4714429127
C        5.7253491998   -1.6491967850    3.1797628023
C        3.8439795682   -1.5364704412    4.6873404497
C        4.7902496527   -1.7179977325    2.1157914407
C        3.4874828432   -1.3563707838    2.4511501396
C        0.0105422495   -1.5767842295    1.1868817912
C        0.2282889444   -0.0550542794    1.1103176849
C        1.4323420724   -2.1924014640    1.1397365679
C        1.5223919443    0.1494436239    1.9091681831
C        2.4241721702   -1.0198034074    1.4423844042
N        3.0987243183   -1.8948993101    3.6405083957
F        5.2200047472   -1.7726639452    0.8319920177
H        5.9324895267   -1.1942709463    5.2876570427
H        6.7896247384   -1.7149126392    2.9714699273
H        3.4301167467   -1.6775321209    5.6850612128
H       -0.4675555948   -1.8263264074    2.1403652640
H       -0.6371963088   -1.9535381245    0.3892443200
H        0.3787638388    0.2563780219    0.0687345772
H       -0.6144609887    0.5199925933    1.5074633623
H        1.5434420096   -2.9877349889    1.8789909484
H        1.6576542011   -2.6183927839    0.1577377732
H        1.9897992299    1.1262270445    1.7478495737
H        1.3192568406    0.0427724165    2.9805258563
H        2.9234313479   -0.7266949174    0.5138784307
