24   
torsion grid (-165,)
C        1.0257488610   -3.2252105163   -3.3283428736
C        1.7789832379   -2.0390303017   -3.9962158387
C        1.1007275832   -2.9547010581   -1.8223446695
C        2.3013941244   -1.1726815866   -2.8404472320
C        3.6965552939    0.1604589660    1.1993676493
C        3.5446594841   -0.3614239392   -0.2362945054
C        2.4967770242   -1.4705524540   -0.2898658239
N        2.3572853082   -2.1193897453   -1.6535854478
H       -0.0151104118   -3.2913638802   -3.6481327745
H        1.5010177523   -4.1775341395   -3.5738688332
H        2.6048419429   -2.3999218198   -4.6126965524
H        1.1291539934   -1.4466627383   -4.6418539098
H        1.1709763553   -3.8436754328   -1.1936555306
H        0.2759563744   -2.3327734017   -1.4695955693
H        3.2860498826   -0.7374262767   -3.0052181986
H        1.6023913310   -0.3805385133   -2.5640629808
H        4.4344477334    0.9652879940    1.2307218542
H        4.0323871596   -0.6288137654    1.8789659537
H        2.7512171062    0.5597250820    1.5803550108
H        3.2539513160    0.4618261973   -0.8949750538
H        4.5112789091   -0.7391484786   -0.5929619723
H        2.7253206551   -2.2765393006    0.4121408017
H        1.5080961325   -1.0759870457   -0.0418050261
H        3.1665468144   -2.7335905043   -1.7928173114
24   
torsion grid (-150,)
C        1.0135655982   -3.2088853993   -3.3340702433
C        1.9122508986   -2.1290665179   -4.0027979301
C        1.1168859246   -2.9435162363   -1.8264092638
C        2.4250586899   -1.2547179081   -2.8534134284
C        3.6331909373    0.2033567642    1.1781481300
C        3.4667046852   -0.2965324407   -0.2641695976
C        2.6216569509   -1.5685395896   -0.2808376849
N        2.4285219589   -2.1946530166   -1.6583840056
H       -0.0270169150   -3.1399404669   -3.6543325247
H        1.3620183086   -4.2142314467   -3.5790065195
H        2.7473671409   -2.5926100646   -4.5333947488
H        1.3682419300   -1.5204270675   -4.7264333194
H        1.1267376856   -3.8347331106   -1.1969386677
H        0.3395910188   -2.2655468347   -1.4701085114
H        3.4224266870   -0.8421558073   -2.9991285278
H        1.7332025669   -0.4471108533   -2.6082580834
H        4.2269415001    1.1201861542    1.1909510117
H        4.1451982581   -0.5356873712    1.8020995400
H        2.6649805516    0.4262408819    1.6376379570
H        2.9890777750    0.4815797952   -0.8656384799
H        4.4543011341   -0.4887741234   -0.6999863857
H        3.0532519791   -2.3473725013    0.3519988327
H        1.6184647130   -1.3529261181    0.0940224129
H        3.1932112656   -2.8599433482   -1.8093573060
24   
torsion grid (-135,)
C        0.9474400373   -3.1397198952   -3.3325698089
C        1.9554544025   -2.1709357015   -4.0162226743
C        1.0764481760   -2.8640560288   -1.8281696670
C        2.5333028832   -1.3161492544   -2.8834813357
C        3.5922202385    0.2059616338    1.1758371708
C        3.3528410109   -0.2438771545   -0.2729018101
C        2.7108464413   -1.6295999139   -0.2831071249
N        2.4479854407   -2.2294756288   -1.6707249949
H       -0.0794855339   -2.9657628833   -3.6570248831
H        1.1878561347   -4.1797164187   -3.5619359558
H        2.7494304769   -2.7278716597   -4.5197328802
H        1.4825486844   -1.5347075919   -4.7656360954
H        1.0126136190   -3.7441774540   -1.1864229905
H        0.3613377945   -2.1168862926   -1.4790962741
H        3.5637829801   -0.9947088922   -3.0293138331
H        1.9113869904   -0.4475227648   -2.6666051468
H        4.0426284796    1.2010838451    1.1887814222
H        4.2698173110   -0.4748925722    1.7003239243
H        2.6550650407    0.2562265472    1.7392002773
H        2.7033730674    0.4797967960   -0.7733468840
H        4.3063336607   -0.2595135050   -0.8118239940
H        3.3321474302   -2.3535699920    0.2479723722
H        1.7421548113   -1.5950327938    0.2191584456
H        3.1429104740   -2.9664617571   -1.8210641294
24   
torsion grid (-120,)
C        0.8773262688   -3.0049784072   -3.3546245815
C        2.0237274546   -2.2136891878   -4.0463375514
C        1.0795035764   -2.7902139581   -1.8446029213
C        2.6766058129   -1.3891053290   -2.9349433909
C        3.5904134899    0.1905243650    1.1438301518
C        3.2516868820   -0.2267495085   -0.2948852443
C        2.8332696629   -1.6946287551   -0.3203966501
N        2.4997192548   -2.2666075968   -1.7080774605
H       -0.1070504225   -2.6406748179   -3.6519413740
H        0.9226834710   -4.0644169014   -3.6125858615
H        2.7528475011   -2.8963905450   -4.4909271769
H        1.6634871472   -1.5625834302   -4.8440832038
H        0.9739422639   -3.6850170293   -1.2296850479
H        0.4316186295   -2.0077789901   -1.4447506517
H        3.7349748771   -1.1756720093   -3.0828566236
H        2.1426699177   -0.4590959709   -2.7417877027
H        3.8731782795    1.2453358396    1.1703328494
H        4.4277309717   -0.3906794854    1.5425443412
H        2.7336174765    0.0575598964    1.8118456984
H        2.4434400466    0.4075328483   -0.6729317881
H        4.1239558571   -0.0677938450   -0.9365260060
H        3.6322530236   -2.3212534255    0.0811672432
H        1.9472130602   -1.8537204648    0.2963698457
H        3.1186998334   -3.0691687036   -1.8514694507
24   
torsion grid (-105,)
C        0.7182834763   -2.9776507012   -3.4333929851
C        1.9632214328   -2.3904072877   -4.1510038612
C        1.0122024907   -2.8587211764   -1.9233251806
C        2.6882674128   -1.5799940484   -3.0781456076
C        3.4074824315    0.1202342694    0.9976168533
C        3.0187652622   -0.3236607739   -0.4202377475
C        2.8669202005   -1.8409142281   -0.4660867829
N        2.4643374293   -2.4119744552   -1.8307574388
H       -0.1840636140   -2.4152807121   -3.6782964100
H        0.5459361473   -4.0142505473   -3.7263392183
H        2.6115608001   -3.1886513032   -4.5246399246
H        1.7003308406   -1.7616283898   -5.0029443192
H        0.9009098238   -3.7834171189   -1.3560151953
H        0.4202499239   -2.0778964046   -1.4427127691
H        3.7584777431   -1.4468738694   -3.2404762840
H        2.2218618536   -0.6099162810   -2.9083591206
H        3.5228173031    1.2059509525    1.0316091864
H        4.3564780805   -0.3266792801    1.3101942645
H        2.6418689962   -0.1580630209    1.7284635151
H        2.0801346866    0.1641170305   -0.7071563295
H        3.7877053806   -0.0007327729   -1.1284415780
H        3.8163272847   -2.3149665515   -0.2064877682
H        2.1150572604   -2.1894345514    0.2442876214
H        3.0255863458   -3.2579947061   -1.9618250664
24   
torsion grid (-90,)
C        0.6743225716   -2.7626970395   -3.3340187437
C        1.9777720545   -2.3963959915   -4.0865177231
C        1.0398701295   -2.7418936017   -1.8331527013
C        2.7967305162   -1.6235934668   -3.0566232243
C        3.2912388356    0.1680279676    1.0510129770
C        2.9178548405   -0.2970355083   -0.3640331110
C        3.0005113736   -1.8173416112   -0.4558560147
N        2.5255090237   -2.3987153540   -1.7834783867
H       -0.1073634573   -2.0272913572   -3.5325558783
H        0.2931542157   -3.7374566653   -3.6410359048
H        2.5164890129   -3.2947507096   -4.4045355682
H        1.7933752335   -1.7940626082   -4.9773577914
H        0.8966851587   -3.6894511904   -1.3128723563
H        0.5171168866   -1.9581358334   -1.2839294797
H        3.8722195585   -1.5866635863   -3.2371015145
H        2.4155401254   -0.6131924118   -2.9106964858
H        3.2553045438    1.2581958195    1.1095697163
H        4.3042021667   -0.1472383148    1.3203931445
H        2.5993095327   -0.2313612826    1.7989248419
H        1.9043373128    0.0463600777   -0.6037208488
H        3.5981575485    0.1593348190   -1.0891374539
H        4.0359246351   -2.1445472797   -0.3312369194
H        2.3995737271   -2.3020536645    0.3169976073
H        3.0197826688   -3.2887632282   -1.8936547436
24   
torsion grid (-75,)
C        0.6559307319   -2.6764652952   -3.2736380206
C        1.9801054773   -2.5075168556   -4.0523958209
C        1.0548747112   -2.7099317162   -1.7817645510
C        2.8807418276   -1.7670681780   -3.0699892457
C        3.1758557930    0.1748398012    1.0525258418
C        2.7815690335   -0.3197559753   -0.3471259784
C        3.0900225297   -1.8082492513   -0.4837921528
N        2.5626171205   -2.4529458368   -1.7559434813
H       -0.0067264721   -1.8286345757   -3.4587845111
H        0.1227952966   -3.5816916387   -3.5669752522
H        2.4154671465   -3.4780485777   -4.3125809470
H        1.8537424044   -1.9456669525   -4.9791776636
H        0.8746091502   -3.6649830522   -1.2871919578
H        0.5800354060   -1.9217198263   -1.1996263641
H        3.9530761271   -1.8355323053   -3.2605862509
H        2.5931231125   -0.7205819204   -2.9696808584
H        2.9884690942    1.2475220029    1.1383866328
H        4.2387984617    0.0052918727    1.2509529287
H        2.5981879575   -0.3309710184    1.8323454996
H        1.7155126385   -0.1283546578   -0.5126752641
H        3.3343936605    0.2494891635   -1.1002164403
H        4.1698680393   -1.9791039248   -0.4794170003
H        2.6543942768   -2.3808681964    0.3394422565
H        3.0076065394   -3.3737921209   -1.8083405820
24   
torsion grid (-60,)
C        0.8241520397   -3.0163342062   -3.4762984670
C        2.0132777816   -2.3072351084   -4.1684434519
C        0.8940350128   -2.5328404564   -2.0315715595
C        3.0221023330   -1.9819566821   -3.0434203481
C        3.0459559113    0.1394850484    1.0214061683
C        2.4652495297   -0.4004840649   -0.2947118488
C        2.8397101252   -1.8705851520   -0.4620408368
N        2.3855869807   -2.5142401156   -1.7624763857
H       -0.1351776518   -2.7672379145   -3.9323841498
H        0.9337281191   -4.1047830259   -3.5177916437
H        2.4621533826   -2.9352422331   -4.9390698199
H        1.6871150631   -1.3823275849   -4.6475505130
H        0.4053109390   -3.1717550929   -1.2942082708
H        0.5318980126   -1.5098970707   -1.9257791553
H        3.9966774082   -2.4584685841   -3.1554968587
H        3.1704993554   -0.9120951695   -2.9131835393
H        2.7648678144    1.1867556630    1.1528895334
H        4.1388228739    0.0821290599    1.0292498869
H        2.6682219949   -0.4186035530    1.8837653582
H        1.3775700913   -0.2820115852   -0.2829742432
H        2.8493902793    0.1960368993   -1.1278533922
H        3.9252098457   -2.0004964639   -0.4315640025
H        2.4049073677   -2.4751180179    0.3385485874
H        2.6654583828   -3.4974274176   -1.6938906269
24   
torsion grid (-45,)
C        0.8130061282   -2.9455298191   -3.4955338839
C        2.0666560192   -2.3466713786   -4.1792478429
C        0.8922559031   -2.4286875649   -2.0629996904
C        3.0640720232   -2.0544875574   -3.0361894537
C        3.0527333907    0.1530587773    0.9829769646
C        2.3372595967   -0.4737307636   -0.2229830950
C        2.8788168503   -1.8768166952   -0.4817024426
N        2.3740276760   -2.5299710935   -1.7600383234
H       -0.1159740224   -2.6362693541   -3.9769590112
H        0.8395319138   -4.0398075629   -3.5075609336
H        2.4892050963   -3.0313250716   -4.9156989518
H        1.8196630163   -1.4185681010   -4.6978058272
H        0.3313691079   -2.9989701874   -1.3205767267
H        0.6199843801   -1.3755979748   -1.9968602544
H        4.0169528754   -2.5787278360   -3.1171611660
H        3.2613172669   -0.9902140663   -2.9123651508
H        2.6436682940    1.1448754885    1.1881591363
H        4.1256965803    0.2635501005    0.7981134887
H        2.9223495924   -0.4542616514    1.8841624845
H        1.2625839527   -0.5171289835   -0.0233284016
H        2.4806066122    0.1651032633   -1.1018632292
H        3.9690797795   -1.8752997452   -0.5603409437
H        2.6013288359   -2.5482340839    0.3352736207
H        2.5806233276   -3.5294571965   -1.6740497095
24   
torsion grid (-30,)
C        0.7446136727   -2.9458123309   -3.5651617831
C        2.0744830422   -2.5502892018   -4.2598502847
C        0.8534481579   -2.3492129744   -2.1645011183
C        3.0359433810   -2.1583793211   -3.1191306154
C        2.9118935111    0.0837411347    0.9920378861
C        2.1984380783   -0.5516102659   -0.2104944599
C        2.8795134221   -1.8641035884   -0.5852657989
N        2.3196040119   -2.5483006756   -1.8309181605
H       -0.1342747855   -2.5623347727   -4.0855214993
H        0.6400884944   -4.0334707346   -3.5079857412
H        2.4730373672   -3.3749208983   -4.8524756104
H        1.9351498888   -1.7024312667   -4.9323729183
H        0.2362622415   -2.8267169726   -1.4018346868
H        0.6681522066   -1.2757845270   -2.1631843878
H        4.0035458744   -2.6611865151   -3.1388469910
H        3.2009441639   -1.0815680608   -3.0612831852
H        2.4136414375    1.0137863657    1.2747764338
H        3.9551187988    0.3191744413    0.7598952575
H        2.8971315889   -0.5806386522    1.8617357479
H        1.1492886359   -0.7317270751    0.0415538839
H        2.2192398810    0.1482401107   -1.0542171662
H        3.9466448195   -1.7250691926   -0.7715584502
H        2.7735326467   -2.5828280545    0.2313072695
H        2.4588379816   -3.5552749642   -1.7080809107
24   
torsion grid (-15,)
C        0.7300739679   -2.8623340385   -3.5514348204
C        2.0981253095   -2.6591889558   -4.2596166847
C        0.8915919498   -2.2027038764   -2.1821231110
C        3.0646878691   -2.1847392520   -3.1590719799
C        2.9067615822    0.0431251698    1.1065194754
C        2.1740538147   -0.5686038606   -0.0966805759
C        2.9713978797   -1.7508590091   -0.6395913377
N        2.3486506178   -2.4668366803   -1.8456980747
H       -0.0987693283   -2.4120501276   -4.0996128482
H        0.5032597251   -3.9259794757   -3.4370099060
H        2.4445908059   -3.5855560876   -4.7204551939
H        2.0373805706   -1.9069241003   -5.0474472865
H        0.2546802490   -2.6091660563   -1.3957744700
H        0.7662837123   -1.1216997545   -2.2281982162
H        4.0322250884   -2.6881570265   -3.1435957849
H        3.2290412248   -1.1058945965   -3.1847328571
H        2.3385839686    0.8891680006    1.4997493780
H        3.9000962753    0.4080979831    0.8274354890
H        3.0251764504   -0.6850512744    1.9150353498
H        1.1757154283   -0.8948078920    0.2098215053
H        2.0486562786    0.1980446929   -0.8694123125
H        3.9727019393   -1.4463575512   -0.9488341600
H        3.0808101524   -2.5091480655    0.1391166829
H        2.4289826924   -3.4729182893   -1.6752446605
24   
torsion grid (0,)
C        1.8334677363   -3.4486924772   -3.2792369165
C        0.9158544603   -2.2952763755   -3.7776222898
C        2.4317184697   -2.9537642187   -1.9593717797
C        1.1750428758   -1.1210809399   -2.8202397853
C        3.4480328790   -0.2710283905    1.4658774432
C        3.0785188997   -1.2845873687    0.3727541525
C        2.8358546724   -0.5540722628   -0.9457208093
N        2.4992987124   -1.4484511085   -2.1507716473
H        1.2886049826   -4.3808484214   -3.1234622325
H        2.6259065667   -3.6547023402   -4.0033513912
H        1.1542484393   -2.0234893777   -4.8075070994
H       -0.1395150316   -2.5701519266   -3.7510247901
H        3.4255967019   -3.3393441556   -1.7338139412
H        1.7716410470   -3.1375278104   -1.1121830738
H        1.2511700342   -0.1417811854   -3.2948811094
H        0.4384064967   -1.0691482293   -2.0160972113
H        3.6149270474   -0.7877886380    2.4137213221
H        2.6486305845    0.4604520563    1.6205340605
H        4.3643517770    0.2724168351    1.2150464822
H        3.8873802739   -2.0137030866    0.2619524457
H        2.1805227627   -1.8311091194    0.6773740085
H        2.0066053068    0.1484142259   -0.8472387026
H        3.7212568363    0.0173958224   -1.2312493433
H        3.2283290158   -1.2892987445   -2.8515667111
24   
torsion grid (15,)
C        1.7963014776   -3.4574585147   -3.2471009159
C        0.9812972609   -2.2757542291   -3.8489219973
C        2.3031268041   -2.9586326437   -1.8904111307
C        1.2064922373   -1.0898507531   -2.8960797328
C        3.5051208129   -0.2680708667    1.4683867910
C        3.2184433505   -1.2875108717    0.3563306350
C        2.7434668402   -0.5624680138   -0.9010189031
N        2.4473204449   -1.4629724244   -2.1058450577
H        1.1953118341   -4.3589868726   -3.1206066123
H        2.6372720655   -3.7180259660   -3.8949122119
H        1.3232739165   -2.0397886814   -4.8582405251
H       -0.0837677576   -2.5028968846   -3.9127028481
H        3.2570935014   -3.3771010025   -1.5726764748
H        1.5651914431   -3.0968744009   -1.0991916040
H        1.3703042500   -0.1269471893   -3.3820005062
H        0.4033543698   -0.9858942445   -2.1642478382
H        3.8346784201   -0.7840936053    2.3730500952
H        2.6108663079    0.3105073388    1.7208150417
H        4.2938378553    0.4323404484    1.1766229778
H        4.1272519591   -1.8623044388    0.1464682455
H        2.4550378489   -1.9921373002    0.6979663787
H        1.8164446823   -0.0247705894   -0.6912608356
H        3.4807252248    0.1679173060   -1.2401431242
H        3.2408132693   -1.3602440780   -2.7455877613
24   
torsion grid (30,)
C        1.7583862639   -3.4661537429   -3.2176982954
C        1.0482486929   -2.2633273014   -3.9044999822
C        2.1952703389   -2.9574057781   -1.8400333650
C        1.2573552162   -1.0638764230   -2.9640690082
C        3.5541295178   -0.2738974041    1.4605770614
C        3.3255261745   -1.2758218763    0.3198394530
C        2.6435095302   -0.5827533290   -0.8574091181
N        2.4127467100   -1.4744152466   -2.0714725319
H        1.1046953698   -4.3332150163   -3.1137425119
H        2.6282588600   -3.7852092358   -3.7974648159
H        1.4749167849   -2.0692002979   -4.8901641458
H       -0.0187205487   -2.4430817936   -4.0432362819
H        3.1091271393   -3.4051027269   -1.4525242014
H        1.4030909006   -3.0474594837   -1.0939805155
H        1.5052838467   -0.1235595132   -3.4583959786
H        0.4051809254   -0.9018886482   -2.3017748780
H        4.0312732521   -0.7723192694    2.3074335287
H        2.6093208353    0.1520531924    1.8128177175
H        4.2038736124    0.5490521597    1.1471197978
H        4.2879120072   -1.6988912934    0.0076113463
H        2.7057038654   -2.1020807715    0.6789601166
H        1.6567853930   -0.2223480824   -0.5561642168
H        3.2188221884    0.2752385561   -1.2125192535
H        3.2622258854   -1.4115257207   -2.6421998802
24   
torsion grid (45,)
C        1.6952390869   -3.4705016375   -3.1941820676
C        1.0917663428   -2.2431534468   -3.9361124943
C        2.0886964299   -2.9633509729   -1.8027619270
C        1.3077320876   -1.0409699662   -3.0010174417
C        3.5977145690   -0.2619903930    1.4508470642
C        3.4019113173   -1.2495162866    0.2919585980
C        2.5352414075   -0.6245698541   -0.7983078026
N        2.3826062789   -1.4940189180   -2.0305996885
H        0.9890905278   -4.2978952686   -3.1121595100
H        2.5745387740   -3.8478871595   -3.7220994769
H        1.5862580249   -2.0867543919   -4.8964709592
H        0.0270389605   -2.3692124703   -4.1371611305
H        2.9624890015   -3.4478945097   -1.3696998450
H        1.2613555155   -3.0070891628   -1.0904326998
H        1.6367507120   -0.1247718952   -3.4931060348
H        0.4260603267   -0.8206729112   -2.3967268278
H        4.2037840545   -0.7193046401    2.2361791981
H        2.6395414738    0.0266223446    1.8944131498
H        4.1085634309    0.6474629122    1.1199084102
H        4.3799143337   -1.5306663237   -0.1190199188
H        2.9312084422   -2.1631425934    0.6664172938
H        1.5228344216   -0.4435598202   -0.4275889609
H        2.9442322025    0.3281166260   -1.1444199039
H        3.2770473717   -1.4567573227   -2.5315107823
24   
torsion grid (60,)
C        1.6296203454   -3.4733306189   -3.2043743012
C        1.1405285781   -2.2151973693   -3.9774077429
C        1.9793685875   -2.9843924718   -1.7952718946
C        1.3749317460   -1.0249547777   -3.0322597255
C        3.6203979618   -0.2380684239    1.4349647310
C        3.4838112170   -1.2037792780    0.2498371504
C        2.4545854024   -0.6862371606   -0.7514290042
N        2.3662919572   -1.5331980027   -2.0005447830
H        0.8716272366   -4.2564734938   -3.1578586083
H        2.5105972544   -3.9051580617   -3.6854480918
H        1.6961407678   -2.0906023516   -4.9085769145
H        0.0831671256   -2.2795294799   -4.2377873522
H        2.8008069693   -3.5177211996   -1.3185791991
H        1.1168101623   -2.9782835389   -1.1245569833
H        1.7849923891   -0.1321723009   -3.5060727603
H        0.4758530129   -0.7491137322   -2.4781377465
H        4.3530241091   -0.6199885501    2.1494908479
H        2.6692639289   -0.1197673870    1.9634634626
H        3.9549547538    0.7513073940    1.1080354040
H        4.4571749685   -1.3176471434   -0.2450020000
H        3.1885835844   -2.1919003744    0.6160559432
H        1.4497133602   -0.6695421646   -0.3213398291
H        2.7002925522    0.3259420198   -1.0841228648
H        3.2952080880   -1.5291255396   -2.4359175703
24   
torsion grid (75,)
C        1.5598127536   -3.4940381646   -3.2103950202
C        1.1904821766   -2.2114275532   -4.0097080637
C        1.8406099353   -3.0189754037   -1.7821338850
C        1.4358282423   -1.0357974283   -3.0493666965
C        3.6309313877   -0.2173117335    1.4222667216
C        3.5689715415   -1.1320593615    0.1917407424
C        2.3946119181   -0.7562177934   -0.7079221494
N        2.3368381177   -1.5973355084   -1.9631955455
H        0.7587884092   -4.2345985091   -3.2142550610
H        2.4456410322   -3.9740010111   -3.6334788785
H        1.8075620300   -2.1200758500   -4.9053668938
H        0.1487679915   -2.2158268785   -4.3333803948
H        2.5869776241   -3.6018228416   -1.2429285384
H        0.9334147139   -2.9486212089   -1.1779457039
H        1.9216044710   -0.1670471006   -3.4955309523
H        0.5236234061   -0.7101500702   -2.5454715619
H        4.4761823207   -0.4947241602    2.0560632249
H        2.7208074191   -0.2987316007    2.0246184302
H        3.7576704727    0.8309377902    1.1343674525
H        4.5043507253   -1.0459689392   -0.3765357005
H        3.4802876641   -2.1749036733    0.5143608787
H        1.4318172431   -0.8794992927   -0.2061281076
H        2.4786625474    0.2832371332   -1.0362092763
H        3.2882176571   -1.6491877523   -2.3432758178
24   
torsion grid (90,)
C        1.5178810001   -3.4768928706   -3.2230456576
C        1.2824029569   -2.1718678630   -4.0380313796
C        1.7121900088   -3.0186394979   -1.7757588607
C        1.5198890054   -1.0169127870   -3.0510017324
C        3.6793569393   -0.1794758646    1.4130169685
C        3.6526728980   -1.0226156927    0.1317866472
C        2.3565432588   -0.8045808491   -0.6447045231
N        2.3151797993   -1.6337582890   -1.9135268825
H        0.6795260664   -4.1713731568   -3.2933988523
H        2.4058321154   -4.0042371174   -3.5802892873
H        1.9701714029   -2.1116809034   -4.8834932109
H        0.2697358487   -2.1159988624   -4.4397153750
H        2.3708721235   -3.6463076370   -1.1746281808
H        0.7639063943   -2.8852737542   -1.2512382663
H        2.0782267699   -0.1703031544   -3.4528955783
H        0.5929583633   -0.6500627811   -2.6055549298
H        4.6172414967   -0.3382821308    1.9499153195
H        2.8591002736   -0.4507677430    2.0847553509
H        3.5985034452    0.8886999487    1.1887078295
H        4.5038212464   -0.7494265712   -0.5054279758
H        3.7643136100   -2.0831627497    0.3862844041
H        1.4711346178   -1.0692354377   -0.0630654932
H        2.2664007838    0.2409353314   -0.9490558693
H        3.2813015279   -1.7481288992   -2.2381423080
24   
torsion grid (105,)
C        1.4705066061   -3.4659999376   -3.2411821852
C        1.3932981641   -2.1367691579   -4.0490345983
C        1.5898417717   -3.0404443560   -1.7756620371
C        1.6181527789   -1.0140493773   -3.0232244798
C        3.7248585805   -0.1380241542    1.4053504978
C        3.7010849503   -0.9342918516    0.0948704935
C        2.3194644731   -0.8952559834   -0.5532826246
N        2.2904901528   -1.6976772286   -1.8459901911
H        0.5905464900   -4.0944978636   -3.3850435556
H        2.3410321805   -4.0539622225   -3.5421109084
H        2.1552938899   -2.1116198840   -4.8302990159
H        0.4258122696   -2.0078237690   -4.5361865396
H        2.1632153341   -3.7159111728   -1.1390283978
H        0.6171080692   -2.8520853682   -1.3170147291
H        2.2509569109   -0.1931917357   -3.3638502888
H        0.6812712452   -0.6049792746   -2.6402038660
H        4.7231165160   -0.1685997330    1.8477059953
H        3.0222443906   -0.5520950874    2.1350863903
H        3.4647649174    0.9117979942    1.2378533902
H        4.4385882117   -0.5171024294   -0.6029843664
H        3.9885044461   -1.9750339170    0.2899404908
H        1.5483608931   -1.3080006874    0.0996111910
H        2.0409874742    0.1295711092   -0.8066927584
H        3.2638786646   -1.8762674092   -2.1143055906
24   
torsion grid (120,)
C        1.3789114126   -3.4527832922   -3.2449164618
C        1.5038340546   -2.1236997244   -4.0493209520
C        1.5007288691   -3.0537523744   -1.7683372508
C        1.6833760874   -1.0214192813   -2.9976314431
C        3.7653697365    0.0306308037    1.3100839734
C        3.7305080076   -0.7628770599   -0.0017149840
C        2.2991810736   -0.9593514036   -0.4944757115
N        2.2663730496   -1.7454036207   -1.7998250359
H        0.4275949088   -3.9565933299   -3.4211919790
H        2.1713003522   -4.1505126102   -3.5242466902
H        2.3624596505   -2.1583036964   -4.7234686941
H        0.6220546696   -1.9227901401   -4.6592333065
H        2.0336545439   -3.7652396965   -1.1357224373
H        0.5326796814   -2.8283884106   -1.3165926044
H        2.3514951464   -0.2080524129   -3.2848337911
H        0.7311699680   -0.6027150099   -2.6660521090
H        4.7967932929    0.1607467961    1.6452939500
H        3.2181794445   -0.4880385935    2.1033565860
H        3.3256898384    1.0250217292    1.1852337123
H        4.3111186716   -0.2341728911   -0.7684763210
H        4.2015463228   -1.7429538054    0.1475053958
H        1.7026669516   -1.5149053044    0.2313060894
H        1.8070262910   -0.0032708232   -0.6811984675
H        3.2379277189   -1.9745370196   -2.0343349652
24   
torsion grid (135,)
C        1.2985608010   -3.4184968794   -3.3080004020
C        1.6787973128   -2.1107816461   -4.0633043487
C        1.4495970629   -3.0973858401   -1.8099571760
C        1.8248789944   -1.0445616930   -2.9756308423
C        3.7308483214    0.0969722107    1.2719857966
C        3.7196380250   -0.6650191124   -0.0589244592
C        2.3045910798   -1.0902295117   -0.4425207648
N        2.2892899789   -1.8339419638   -1.7692790857
H        0.2740937024   -3.7280243302   -3.5192351809
H        1.9527520903   -4.2412586753   -3.6017075762
H        2.6202701944   -2.2347019523   -4.6045562987
H        0.9235681866   -1.8141467408   -4.7924494306
H        1.9446937903   -3.8675344140   -1.2168906489
H        0.4972400856   -2.8452544577   -1.3396611059
H        2.5445771889   -0.2534679040   -3.1907538248
H        0.8676895390   -0.5972113024   -2.6995352520
H        4.7518211623    0.3827096903    1.5348419341
H        3.3350233867   -0.5181702932    2.0860746902
H        3.1320878634    1.0110140380    1.2118558452
H        4.1437454232   -0.0333507164   -0.8493630051
H        4.3543788080   -1.5569881591    0.0221399649
H        1.8890619670   -1.7665196858    0.3073200886
H        1.6311942402   -0.2370790371   -0.5438509669
H        3.2566122465   -2.1174673715   -1.9580421320
24   
torsion grid (150,)
C        1.1998466764   -3.3785895463   -3.3439502040
C        1.7288940908   -2.1033437323   -4.0624784671
C        1.3556343677   -3.1074972630   -1.8359955524
C        1.9423049574   -1.0726840697   -2.9518904498
C        3.6926889717    0.1239161627    1.2366655567
C        3.6840850477   -0.5846262723   -0.1239578566
C        2.3215143204   -1.2104991989   -0.4100886260
N        2.2984207676   -1.9212231618   -1.7487297111
H        0.1527381276   -3.5737890544   -3.5793383453
H        1.7694709230   -4.2592186323   -3.6456642845
H        2.6715149165   -2.3095910053   -4.5760470935
H        1.0305683160   -1.7235422253   -4.8095672286
H        1.7750086302   -3.9312898537   -1.2570583108
H        0.4212656372   -2.7879716756   -1.3702118875
H        2.7361490179   -0.3484825242   -3.1366279075
H        1.0229692149   -0.5433829996   -2.6920820185
H        4.6764675234    0.5573066522    1.4302004744
H        3.4675754199   -0.5728249167    2.0501098120
H        2.9579957049    0.9344063550    1.2675512387
H        3.9425771242    0.1309677613   -0.9131290178
H        4.4505180991   -1.3706220898   -0.1333729141
H        2.0795201743   -1.9603007292    0.3470191799
H        1.5175229959   -0.4715189722   -0.4286675405
H        3.2457489316   -2.2807265793   -1.9088917293
24   
torsion grid (165,)
C        1.1345238932   -3.3380259434   -3.3444820218
C        1.7742107104   -2.1062572921   -4.0468587804
C        1.2907672483   -3.0895204358   -1.8336047086
C        2.0806370716   -1.1093000423   -2.9262036218
C        3.6635083729    0.1600181349    1.2190680014
C        3.6353232622   -0.4712405191   -0.1793823748
C        2.3647852786   -1.2928465761   -0.3802331251
N        2.3339211712   -1.9917939912   -1.7205920094
H        0.0783796171   -3.4465655817   -3.5949802045
H        1.6349032327   -4.2604798363   -3.6439879675
H        2.6934446657   -2.3885868440   -4.5661572476
H        1.1107701866   -1.6563657607   -4.7868079041
H        1.6256981739   -3.9514236231   -1.2552064286
H        0.3813957539   -2.6916179724   -1.3790543011
H        2.9475010783   -0.4730594758   -3.1025285482
H        1.2206705987   -0.4850731373   -2.6729133043
H        4.5797094231    0.7395450017    1.3526472523
H        3.6327039038   -0.6036500502    2.0024249656
H        2.8158865249    0.8362478930    1.3673680521
H        3.7006412352    0.3159846193   -0.9378666077
H        4.5123770947   -1.1192183579   -0.3069380808
H        2.2883823659   -2.0768909732    0.3778864782
H        1.4624164126   -0.6785466546   -0.3288127427
H        3.2528077693   -2.4279071873   -1.8544988739
24   
torsion grid (180,)
C        1.0823316899   -3.2646438971   -3.3241019046
C        1.7222656964   -2.0209307689   -4.0059202608
C        1.1622946687   -2.9929259676   -1.8182070011
C        2.2042889209   -1.1149177770   -2.8624618401
C        3.7261793644    0.1338363463    1.2253155099
C        3.6181192877   -0.4239196408   -0.2005965918
C        2.4266874444   -1.3706160730   -0.3192683597
N        2.3373992413   -2.0449967589   -1.6695813795
H        0.0451932843   -3.4178427000   -3.6254851699
H        1.6313282278   -4.1733836122   -3.5807907092
H        2.5582032269   -2.3157062619   -4.6434169299
H        1.0119083422   -1.4820051612   -4.6343991258
H        1.3304919836   -3.8732011399   -1.1961828598
H        0.2895256053   -2.4538572387   -1.4439974896
H        3.1574622810   -0.6202276164   -3.0445288209
H        1.4620842745   -0.3656277600   -2.5786565876
H        4.5735616169    0.8192206266    1.2985821162
H        3.8774859248   -0.6658757656    1.9569011413
H        2.8244272175    0.6872491485    1.5056613987
H        3.5128564894    0.4031690096   -0.9094619044
H        4.5428014452   -0.9568478185   -0.4573907503
H        2.4829270225   -2.1727557906    0.4215988865
H        1.4802087104   -0.8420936924   -0.1787010697
H        3.1967359615   -2.5898370966   -1.7997432251
