30   
torsion grid (-165,)
C       -0.7001037051    1.1418554543   -0.2890209967
C        0.5657973159    0.8002708775   -0.8406370751
C       -1.2166924470    0.3345193219    0.6875877992
C        1.2789247771   -0.2926149056   -0.4091527210
C        0.7514357191   -1.1340476404    0.6555572007
C        4.9619569217   -0.2326281384   -1.2238578512
C        4.0245292705   -0.6306647266    0.9487778045
C        6.1161018816    0.5722014805   -0.6404122825
C        5.1257046450    0.1625276168    1.6329244494
C        2.5863451441   -0.7030693407   -1.0365850337
N       -0.5126142656   -0.7498752254    1.1229073180
N        3.7759375933   -0.0975481426   -0.3883706841
N        6.3816737156    0.1023196169    0.7780550384
O        1.3284227176   -2.1108442347    1.1556105043
H       -1.2591100418    2.0013865379   -0.6382173546
H        0.9732063721    1.4179819974   -1.6388340905
H       -2.1826769939    0.5016154843    1.1523371666
H        5.2767151796   -1.2871453181   -1.3580143061
H        4.7577684061    0.1677901478   -2.2206807133
H        4.2817936193   -1.7063524867    0.9329430109
H        3.1241248048   -0.5487924988    1.5565502670
H        7.0397374633    0.4461485068   -1.2089332037
H        5.8620516954    1.6311902487   -0.5711320529
H        5.3781784722   -0.2423298789    2.6149126601
H        4.8626834378    1.2182021130    1.7190256877
H        2.5961088681   -0.3681190727   -2.0773808851
H        2.6587146630   -1.8005793687   -1.0339259829
H       -0.8953059749   -1.3510378523    1.8477120017
H        6.7135703370   -0.8696984220    0.7499430104
H        7.1327348420    0.6573633365    1.2026659698
30   
torsion grid (-150,)
C       -0.7158912067    1.0897775363   -0.5252996102
C        0.5510755184    0.6694492270   -1.0172517493
C       -1.2113562497    0.4699003772    0.5884855599
C        1.2882148606   -0.3143385752   -0.4016322605
C        0.7774239942   -0.9551614754    0.8003491304
C        4.9302963352   -0.0880030901   -1.2319939819
C        4.1950738403   -0.8987661778    0.8951349148
C        6.0248750672    0.7598036347   -0.5933693725
C        5.2341712610   -0.0844578335    1.6444106094
C        2.6006140286   -0.7983470696   -0.9714964382
N       -0.4849398609   -0.5072588971    1.2047252827
N        3.7960889360   -0.2000853661   -0.3255956763
N        6.4317657339    0.1405715242    0.7314989482
O        1.3608640706   -1.8294375244    1.4621783522
H       -1.2897597388    1.8632377252   -1.0209015050
H        0.9392173018    1.1360056352   -1.9208096370
H       -2.1747522956    0.7059293964    1.0278008990
H        5.3483643138   -1.0710129664   -1.5287415337
H        4.6256873164    0.4212038669   -2.1502623857
H        4.5968911818   -1.9092150535    0.6805081372
H        3.3273326025   -1.0522424770    1.5383545379
H        6.9196224367    0.8222006081   -1.2162478583
H        5.6578261047    1.7616264120   -0.3647290903
H        5.5979352999   -0.5944944542    2.5386149714
H        4.8541124158    0.9047476371    1.9047671690
H        2.6351446097   -0.5228644641   -2.0283565997
H        2.6414997469   -1.8958522781   -0.9171046193
H       -0.8520765975   -0.9742405712    2.0295548717
H        6.8784459359   -0.7666520201    0.5504537031
H        7.1341203988    0.7264111957    1.1961644322
30   
torsion grid (-135,)
C       -0.7931389534    0.9587199437   -0.7319052123
C        0.4631208659    0.4665398456   -1.1850437177
C       -1.2053091579    0.6086080724    0.5234105029
C        1.2663735193   -0.3287771107   -0.4029440783
C        0.8359309431   -0.6924152593    0.9376291148
C        4.8342253099    0.0696013888   -1.1668852371
C        4.3014487013   -1.1567720906    0.8161211012
C        5.8771225916    0.9094615663   -0.4363043315
C        5.2962131695   -0.3765822094    1.6544905450
C        2.5766164761   -0.8798419975   -0.9157662270
N       -0.4127288720   -0.1824679991    1.3045304453
N        3.7713446889   -0.3039536183   -0.2464497648
N        6.4137257657    0.1282284091    0.7496973148
O        1.4684140566   -1.3962729565    1.7435699122
H       -1.4183862809    1.5825205993   -1.3588571161
H        0.7891061364    0.7236585713   -2.1912606560
H       -2.1497192949    0.9225314087    0.9549645981
H        5.3259888187   -0.8030077828   -1.6418948445
H        4.4328060300    0.6914464861   -1.9716116666
H        4.7868283601   -2.0689784158    0.4138138029
H        3.4767070057   -1.4732824922    1.4588520193
H        6.7267146286    1.1661627663   -1.0726170377
H        5.4270057265    1.8160648434   -0.0288643039
H        5.7590803019   -0.9873283354    2.4322007105
H        4.8320814008    0.5062599786    2.0969680576
H        2.6445275455   -0.6642072600   -1.9850123918
H        2.5822368948   -1.9735815984   -0.8118869251
H       -0.7203856018   -0.4548337446    2.2341904222
H        6.9418473780   -0.6813073711    0.4022324213
H        7.0751881903    0.7039429713    1.2820516227
30   
torsion grid (-120,)
C       -0.7843872928    0.8583629218   -0.8395616184
C        0.4365296263    0.2830704377   -1.2942512779
C       -1.1063629914    0.7240105640    0.4819764590
C        1.2858110039   -0.3873503119   -0.4485987804
C        0.9498696520   -0.5302185927    0.9596150457
C        4.7361643704    0.1504487112   -1.1227609973
C        4.3936093822   -1.3753334059    0.7006907946
C        5.6885636929    1.0117621120   -0.2983780192
C        5.3066722196   -0.5874121278    1.6225004831
C        2.5684399985   -1.0269044187   -0.9212213645
N       -0.2631821246    0.0591707731    1.3268921908
N        3.7609443770   -0.4670022416   -0.2453592745
N        6.3345752384    0.1567932030    0.7782772999
O        1.6346190210   -1.1165828086    1.8147869764
H       -1.4511432681    1.3818864199   -1.5137741402
H        0.6954536470    0.3731518037   -2.3478174481
H       -2.0160679548    1.1197357200    0.9207354117
H        5.3179721333   -0.5823497999   -1.7179611055
H        4.2348165897    0.8162217674   -1.8305588906
H        4.9665108174   -2.1818417483    0.1999194526
H        3.6165761994   -1.8276144751    1.3190764326
H        6.4917138996    1.4435651464   -0.8994842149
H        5.1428675117    1.8002023191    0.2220768514
H        5.8584396136   -1.2242296868    2.3169427868
H        4.7412510538    0.1682748839    2.1697184330
H        2.6618302175   -0.8939204842   -2.0034943186
H        2.5269197408   -2.1083794303   -0.7422885216
H       -0.5089082180   -0.0566585743    2.3062660975
H        6.9487061131   -0.5333867266    0.3292394144
H        6.9336717944    0.7371465905    1.3753339629
30   
torsion grid (-105,)
C       -0.6858143554    0.8728320312   -0.8818709713
C        0.4864076760    0.2040922781   -1.3390177935
C       -0.9551425450    0.8604902630    0.4582627186
C        1.3380881256   -0.4353399978   -0.4736352390
C        1.0610826985   -0.4483825840    0.9561049702
C        4.6445299686    0.1898390554   -1.0964662537
C        4.5047981790   -1.5132293062    0.6130497980
C        5.4910427101    1.0940781668   -0.2037133619
C        5.3164491132   -0.6828961300    1.5936615663
C        2.5755567029   -1.1764492611   -0.9121374507
N       -0.1062427535    0.2279985665    1.3231651622
N        3.7820680194   -0.6241881058   -0.2729194700
N        6.2394829603    0.2390019889    0.8054606184
O        1.7605727512   -0.9979886071    1.8229487853
H       -1.3592070454    1.3711292431   -1.5685388161
H        0.7023323594    0.1935962493   -2.4060892600
H       -1.8275783816    1.3321367243    0.8977070292
H        5.3070974138   -0.4011100778   -1.7617560266
H        4.0427228611    0.8408715741   -1.7365512315
H        5.1668927457   -2.2228241164    0.0763953899
H        3.7844176170   -2.0833612780    1.2013001067
H        6.2355491424    1.6643702070   -0.7637294194
H        4.8571273725    1.7671028211    0.3753024888
H        5.9477690954   -1.2895940746    2.2463165979
H        4.6562519206   -0.0458515278    2.1838303451
H        2.6674161496   -1.1487621001   -2.0043252043
H        2.4847046746   -2.2312950383   -0.6323270675
H       -0.3173997204    0.2012832835    2.3169721812
H        6.9268654028   -0.3378635145    0.3050156977
H        6.7720810024    0.8382975968    1.4451191490
30   
torsion grid (-90,)
C       -0.5377846530    0.9038141051   -0.8214661568
C        0.5682719277    0.1524874998   -1.3109807224
C       -0.6829354170    1.0279045583    0.5321126334
C        1.4798403045   -0.4369241358   -0.4691104943
C        1.3399828247   -0.2951980391    0.9732083615
C        4.6909229923    0.1614731298   -1.1480271645
C        4.6643849300   -1.6367324918    0.4801684193
C        5.3185992471    1.1331021746   -0.1455028869
C        5.2582956019   -0.7468850939    1.5651830202
C        2.6348283105   -1.2763327738   -0.9670638147
N        0.2292136069    0.4541369156    1.3729471509
N        3.9174851892   -0.8206237699   -0.4419654841
N        6.0944424013    0.3371952880    0.8921252171
O        2.1036610857   -0.7705320887    1.8325012374
H       -1.2581437282    1.3567511077   -1.4917348848
H        0.6840317349    0.0312991211   -2.3867810655
H       -1.4994999742    1.5664077801    1.0010308376
H        5.4886091831   -0.2810677957   -1.7781222021
H        4.0465079212    0.7462207994   -1.8095361080
H        5.4678755029   -2.2193069081   -0.0133316951
H        3.9936133098   -2.3359598889    0.9790108991
H        6.0200291206    1.8317441217   -0.6082820367
H        4.5463458746    1.6765804916    0.4004415704
H        5.9225157855   -1.2829371062    2.2473200606
H        4.4538933402   -0.2508977491    2.1097091880
H        2.6410287813   -1.2861201933   -2.0642446450
H        2.4906461245   -2.3143007342   -0.6498368403
H        0.1093008666    0.5268208120    2.3796655928
H        6.8994655053   -0.1069520474    0.4326788783
H        6.4781137344    0.9719564771    1.6000400791
30   
torsion grid (-75,)
C       -0.4391808529    0.8990999663   -0.8294164199
C        0.6330677696    0.0994988813   -1.3158312263
C       -0.5576042643    1.0627895062    0.5226767458
C        1.5420584150   -0.4980959130   -0.4748269515
C        1.4330530412   -0.3072334040    0.9620797614
C        4.6440397012    0.1246434416   -1.1740047398
C        4.7579720208   -1.7354925202    0.3899289110
C        5.0912203527    1.1218128152   -0.0993175726
C        5.2189275769   -0.8236349100    1.5266363808
C        2.6474984039   -1.3982664592   -0.9855665495
N        0.3523878529    0.4837970326    1.3621291680
N        3.9843437302   -0.9977255380   -0.5729274175
N        5.9367551448    0.3785801587    0.9221136879
O        2.2028448056   -0.7751084229    1.8213069204
H       -1.1568210330    1.3559178755   -1.5000031294
H        0.7238578585   -0.0566294490   -2.3894988826
H       -1.3495636512    1.6370733404    0.9912936420
H        5.5254601117   -0.1769285763   -1.7721251270
H        3.9639250948    0.6475161922   -1.8507333659
H        5.6381781692   -2.2199023350   -0.0743865005
H        4.1464262000   -2.5183157254    0.8389437354
H        5.7032678787    1.9351896847   -0.4975270306
H        4.2345122237    1.5221589505    0.4444096031
H        5.9275172593   -1.3102732774    2.2015259928
H        4.3526543141   -0.4446338326    2.0691351434
H        2.5870187337   -1.4562342461   -2.0799392332
H        2.4829124723   -2.4139294829   -0.6126452376
H        0.2523571743    0.5848371767    2.3686844112
H        6.7997634162    0.0577550903    0.4646455381
H        6.2246829056    1.0197359632    1.6683000694
30   
torsion grid (-60,)
C       -0.3702655725    0.9872208611   -0.8200285413
C        0.6670550890    0.1242534088   -1.2697798648
C       -0.4611694690    1.2384186105    0.5209392782
C        1.5737956728   -0.4499209261   -0.4079997569
C        1.4974173992   -0.1596213936    1.0125059979
C        4.5685661370    0.1366160850   -1.1422217340
C        4.8239637292   -1.7733127997    0.3412621521
C        4.9124748373    1.1178774635   -0.0143318130
C        5.2265242618   -0.8789127025    1.5177109484
C        2.6204891051   -1.4315076235   -0.8958110656
N        0.4462959515    0.6850146426    1.3793424590
N        4.0083050810   -1.0793944493   -0.6226841873
N        5.8310023681    0.4076503707    0.9665934757
O        2.2737863109   -0.5853674496    1.8882783361
H       -1.0849980396    1.4227653927   -1.5076349387
H        0.7322873823   -0.1043991621   -2.3321745121
H       -1.2280331076    1.8637105614    0.9653418222
H        5.4820509735   -0.0604697544   -1.7321046072
H        3.8589818846    0.6271414575   -1.8122937870
H        5.7362454700   -2.1729102987   -0.1372546723
H        4.2778976493   -2.6228481289    0.7532925129
H        5.4402132437    2.0073103279   -0.3683646172
H        4.0238145107    1.4027941104    0.5496764000
H        5.9867318492   -1.3404999994    2.1529856466
H        4.3464221525   -0.5926607438    2.0921773444
H        2.4814340369   -1.5754506773   -1.9751527245
H        2.4407983694   -2.4036797377   -0.4273536342
H        0.3689645378    0.8528062971    2.3790596161
H        6.7160121020    0.1896647015    0.4910311944
H        6.0645658429    1.0354271541    1.7423991839
30   
torsion grid (-45,)
C       -0.4059114265    0.9070067781   -0.8830855713
C        0.6349570433    0.0234575512   -1.2774614901
C       -0.4512024356    1.3037537556    0.4248316239
C        1.5915301314   -0.4336490490   -0.3975079987
C        1.5646040137    0.0171419219    0.9812849338
C        4.5081365203    0.1967840292   -1.0880371209
C        4.9173122330   -1.8125409643    0.2034351676
C        4.8264031061    1.0945078211    0.1163678928
C        5.2810304515   -1.0129035577    1.4590699668
C        2.6204637981   -1.4589541297   -0.8304659103
N        0.5048491465    0.8697596412    1.2980243558
N        4.0303168379   -1.0992314570   -0.6832565999
N        5.7967301378    0.3538206364    1.0237662739
O        2.3943546124   -0.2742615444    1.8653985773
H       -1.1577671015    1.2474956239   -1.5845792113
H        0.6647988734   -0.3194035490   -2.3100511721
H       -1.2164251407    1.9567620764    0.8304134745
H        5.4157961948    0.0997500062   -1.7084153121
H        3.7608484562    0.7051124848   -1.7009380694
H        5.8444283168   -2.0846454583   -0.3301740260
H        4.4575258857   -2.7477971112    0.5269489049
H        5.3068546897    2.0331062184   -0.1721477306
H        3.9413701749    1.2863607798    0.7209773444
H        6.0796822601   -1.4839003127    2.0378973411
H        4.3979217083   -0.8280524358    2.0679889483
H        2.4137604191   -1.7146880048   -1.8780671154
H        2.4649878886   -2.3740348816   -0.2512739603
H        0.4674636987    1.1506301289    2.2744600101
H        6.6897301238    0.2352048189    0.5290349641
H        5.9956217538    0.9227080451    1.8527644386
30   
torsion grid (-30,)
C       -0.3578355652    0.9168430295   -0.8987504355
C        0.6661345140   -0.0016760943   -1.2546302712
C       -0.4045478926    1.3600803986    0.3944067750
C        1.6110607556   -0.4399660014   -0.3524359052
C        1.5823393726    0.0595089984    1.0093294582
C        4.4473844678    0.2155855362   -1.0796404990
C        4.9844021221   -1.8268891590    0.0916949438
C        4.7536743468    1.0705980102    0.1603913193
C        5.2879684211   -1.0829418643    1.3961253026
C        2.6157827605   -1.5069121905   -0.7256471124
N        0.5362129993    0.9394866239    1.2904791380
N        4.0404013809   -1.1314437727   -0.7559084171
N        5.7478551326    0.3250939716    1.0380033052
O        2.4044177139   -0.2170216778    1.9063980280
H       -1.0994724283    1.2458174026   -1.6164278379
H        0.6924417717   -0.3869952975   -2.2720747011
H       -1.1607409256    2.0405272992    0.7707401035
H        5.3445733351    0.1867446087   -1.7187700059
H        3.6704981430    0.7229789951   -1.6547425227
H        5.9242992120   -1.9843486601   -0.4621567874
H        4.6074651416   -2.8191946938    0.3455419040
H        5.2091891772    2.0299329394   -0.0990448933
H        3.8734760952    1.2220756791    0.7811249300
H        6.0963716777   -1.5465005815    1.9674584625
H        4.3879015099   -0.9656631067    1.9985924407
H        2.3302512842   -1.8984310059   -1.7098862914
H        2.5144478843   -2.3331150013   -0.0160693744
H        0.4953816258    1.2534605284    2.2567247745
H        6.6496084412    0.2682897868    0.5488470648
H        5.9139078479    0.8596313123    1.8966365033
30   
torsion grid (-15,)
C       -0.3379281383    0.9018014324   -0.9304579159
C        0.6861139877   -0.0335091774   -1.2388403709
C       -0.3903932592    1.4055540887    0.3404858116
C        1.6289595068   -0.4223131436   -0.3124452131
C        1.5917968870    0.1371657284    1.0257115998
C        4.4149801979    0.2757807972   -1.0462382745
C        5.0435835597   -1.8055930051   -0.0158525914
C        4.7412723218    1.0757846910    0.2264077357
C        5.3076093622   -1.1356846267    1.3362254857
C        2.6354457720   -1.5062714954   -0.6056463620
N        0.5447370201    1.0277272475    1.2613434418
N        4.0502760705   -1.1053735096   -0.8072255478
N        5.7446316457    0.2981158997    1.0654108477
O        2.4110526892   -0.1033388799    1.9368494343
H       -1.0773729016    1.1962947732   -1.6651820552
H        0.7150521135   -0.4704713845   -2.2349988061
H       -1.1486394524    2.1028159907    0.6800944948
H        5.2919283223    0.2977346117   -1.7107740629
H        3.6136423379    0.7974319506   -1.5724360052
H        5.9837232208   -1.8648499547   -0.5857660430
H        4.7290616040   -2.8357207667    0.1620525923
H        5.1954074931    2.0433588846   -0.0030112102
H        3.8730344881    1.2056700851    0.8672044319
H        6.1129661774   -1.6148356558    1.8989087804
H        4.3956515129   -1.0672540603    1.9305252177
H        2.2999577979   -2.0450144072   -1.4991716338
H        2.6028322665   -2.2154279357    0.2270095927
H        0.4968116746    1.3854928176    2.2119476386
H        6.6510837737    0.2838524190    0.5825336166
H        5.8934043547    0.7857787789    1.9546492415
30   
torsion grid (0,)
C       -0.3530227595    0.8576135558   -0.9810159027
C        0.6811331837   -0.0852863129   -1.2269480894
C       -0.4182502002    1.4380718971    0.2564766408
C        1.6212713637   -0.4024217938   -0.2719375224
C        1.5686145829    0.2337378955    1.0313246538
C        4.3820084140    0.3477211150   -0.9703007556
C        5.0714759725   -1.7899842493   -0.1214516406
C        4.7728688286    1.0676488063    0.3319979909
C        5.3586821491   -1.2112404416    1.2686895534
C        2.6504125044   -1.4810759727   -0.4700307108
N        0.5122140801    1.1262583077    1.2065788290
N        4.0339201411   -1.0541635464   -0.8223428322
N        5.7995939348    0.2335362584    1.0843693942
O        2.3835565384    0.0478725692    1.9594746487
H       -1.0907070693    1.1003292710   -1.7361616283
H        0.7217189728   -0.5825270227   -2.1939092566
H       -1.1848570050    2.1484005221    0.5466462326
H        5.2218929216    0.4151902678   -1.6769395302
H        3.5544305584    0.8991668176   -1.4195262650
H        5.9931465063   -1.7824707300   -0.7221568937
H        4.7837933942   -2.8379988628   -0.0141884485
H        5.2300489590    2.0413429726    0.1372718536
H        3.9336610798    1.1683180395    1.0161532575
H        6.1655828953   -1.7310773323    1.7912873893
H        4.4577872170   -1.1750180283    1.8841103268
H        2.3014192594   -2.1566333070   -1.2582950347
H        2.6841493166   -2.0583533162    0.4602388713
H        0.4532183362    1.5414846867    2.1328586773
H        6.6919137456    0.2466768847    0.5760432824
H        5.9762952747    0.6604404797    1.9994710007
30   
torsion grid (15,)
C       -0.4609669032    0.7541303719   -1.0915594426
C        0.6034163286   -0.1775730950   -1.2285525086
C       -0.5755831394    1.4353357606    0.0897493618
C        1.5214407139   -0.3870475060   -0.2243771047
C        1.4165861132    0.3545320430    1.0191412140
C        4.2836362427    0.4304194057   -0.7946423388
C        5.0170846828   -1.7840591726   -0.2168586893
C        4.7755675627    1.0145529765    0.5398809327
C        5.4342933890   -1.3340242749    1.1895643918
C        2.5936569770   -1.4363574695   -0.3038680185
N        0.3326033754    1.2292174207    1.0887275005
N        3.9364995822   -0.9798606811   -0.7575412228
N        5.8708034908    0.1191355527    1.1019188428
O        2.2051756222    0.2648600654    1.9820612796
H       -1.1813105661    0.9136254782   -1.8846224578
H        0.6877470204   -0.7502134953   -2.1497913752
H       -1.3662528490    2.1485178619    0.2964686237
H        5.0670213630    0.5649333178   -1.5546802961
H        3.4272481482    1.0208646191   -1.1238774730
H        5.8861013626   -1.7333669491   -0.8893066706
H        4.7186719267   -2.8342917123   -0.1749362055
H        5.2063173949    2.0118662970    0.4180284820
H        3.9853562472    1.0219330840    1.2909722635
H        6.2752608871   -1.9056193656    1.5896510592
H        4.5970002400   -1.3568844882    1.8895812109
H        2.2745336873   -2.2254784967   -0.9924234585
H        2.6669656725   -1.8832621448    0.6958806598
H        0.2391673702    1.7231778363    1.9724553516
H        6.7062480434    0.1805155024    0.5071889291
H        6.1455933056    0.4581038348    2.0296198779
30   
torsion grid (30,)
C       -0.5127138134    0.6101108149   -1.1639686556
C        0.5827779811   -0.2948035602   -1.1919776485
C       -0.6690392325    1.4011648022   -0.0583242509
C        1.4869435468   -0.3755098382   -0.1574007221
C        1.3399544054    0.4838161726    1.0036804856
C        4.2556502048    0.4881419572   -0.6273371749
C        5.0083880769   -1.7752715538   -0.3344587116
C        4.8385571061    0.9276485532    0.7235351418
C        5.5729505118   -1.4637799468    1.0593302718
C        2.6017597931   -1.3835487768   -0.1312583468
N        0.2260671756    1.3239317587    0.9697776088
N        3.8943219112   -0.9184878225   -0.6991475683
N        5.9881609671   -0.0029746191    1.0874852678
O        2.1146396606    0.5216694978    1.9793813716
H       -1.2222703943    0.6679734559   -1.9802940740
H        0.7046140987   -0.9491104610   -2.0525953247
H       -1.4838702413    2.1066705230    0.0637922018
H        4.9870904745    0.6908511646   -1.4229763296
H        3.3851732586    1.1103943085   -0.8393456554
H        5.8093985606   -1.6705941984   -1.0805140002
H        4.6968322307   -2.8228311895   -0.3551003311
H        5.2450168940    1.9417728422    0.6897082832
H        4.0952427624    0.8393816276    1.5183142596
H        6.4542447454   -2.0622889933    1.3020757062
H        4.8224670487   -1.5811983562    1.8427910259
H        2.3082569124   -2.2639461296   -0.7113166921
H        2.7177440445   -1.7012650795    0.9147242184
H        0.1068360761    1.9057458948    1.7949035973
H        6.7633551072    0.1357236199    0.4276235726
H        6.3476542730    0.2412680238    2.0161012220
30   
torsion grid (45,)
C       -0.5515756312    0.4984747604   -1.2032709089
C        0.5719620271   -0.3694793743   -1.1407167768
C       -0.7303694280    1.3971934460   -0.1867633302
C        1.4771924291   -0.3140089815   -0.1060512002
C        1.3091891865    0.6618193829    0.9559923340
C        4.2748767228    0.5668854700   -0.5039980901
C        4.9900422880   -1.7205645045   -0.4603504296
C        4.9129647762    0.8660920253    0.8574413081
C        5.6562103373   -1.5482632898    0.9142158021
C        2.6335455704   -1.2693661822    0.0123136788
N        0.1677391755    1.4573359597    0.8395163098
N        3.8675948789   -0.8213407380   -0.6794063640
N        6.0751616962   -0.0967987386    1.0707264353
O        2.0888855799    0.8336189758    1.9123410176
H       -1.2632144342    0.4486563792   -2.0183209686
H        0.7156556944   -1.1041269472   -1.9301953164
H       -1.5661548787    2.0868544586   -0.1370326971
H        4.9824816385    0.8162873379   -1.3071836542
H        3.4162078151    1.2272615981   -0.6285593908
H        5.7397270304   -1.5562076570   -1.2468650980
H        4.6604160170   -2.7589752281   -0.5521049122
H        5.3201647958    1.8785838890    0.9130032218
H        4.1972393887    0.7080365356    1.6663393367
H        6.5513667074   -2.1646085223    1.0257006674
H        4.9694433136   -1.7566923590    1.7358800474
H        2.3602663531   -2.2253963666   -0.4441769065
H        2.7981769136   -1.4506441139    1.0844992060
H        0.0354416583    2.1243719080    1.5951870491
H        6.8157712542    0.1109868411    0.3898531459
H        6.4835956200    0.0523370817    1.9993874694
30   
torsion grid (60,)
C       -0.6217655657    0.3364892871   -1.1992864483
C        0.5380158385   -0.4747606507   -1.0683966641
C       -0.8124409096    1.3398891655   -0.2883542434
C        1.4603716381   -0.2654742696   -0.0706296555
C        1.2781121721    0.8177489380    0.8796877205
C        4.3274678141    0.6442615478   -0.3805128471
C        4.9515468585   -1.6529006273   -0.5726704213
C        4.9951418596    0.7929483781    0.9882343706
C        5.6729954329   -1.6366289180    0.7856656409
C        2.6692412520   -1.1399018296    0.1271936924
N        0.1044592912    1.5521522628    0.7007424444
N        3.8448895637   -0.7061318207   -0.6663741077
N        6.1318523955   -0.2191945242    1.0826988364
O        2.0733424938    1.1230754906    1.7889432851
H       -1.3484073071    0.1674593131   -1.9845791492
H        0.6953929265   -1.2873603859   -1.7745414039
H       -1.6730436482    2.0001173556   -0.2972707109
H        5.0330632478    0.9270277198   -1.1736310609
H        3.5015206794    1.3534184768   -0.4267536726
H        5.6747098736   -1.4290038125   -1.3682982234
H        4.5908439607   -2.6693061256   -0.7516338804
H        5.4322875400    1.7837728633    1.1307151737
H        4.2906313749    0.5888525723    1.7954396642
H        6.5570447230   -2.2784844039    0.7956851939
H        5.0143275102   -1.9222881806    1.6069304785
H        2.4350335340   -2.1534925715   -0.2112710504
H        2.8726748163   -1.1915027581    1.2060060206
H       -0.0369605838    2.2992881789    1.3753821995
H        6.8633298474    0.0395659584    0.4097456202
H        6.5645798169   -0.1765554767    2.0115168515
30   
torsion grid (75,)
C       -0.6677981624    0.5249758385    0.5959988450
C        0.5246636532    0.9394263333   -0.0618435713
C       -0.9236733951   -0.8160745805    0.6782646197
C        1.4245746418    0.0412358072   -0.5851465830
C        1.1678418335   -1.3881046021   -0.4769841923
C        4.5012159333   -0.9773738574   -0.5058845784
C        4.0033271318    1.0814663533    0.6300329333
C        5.9786535867   -0.8877168335   -0.1517974335
C        5.4523818862    1.2536219789    1.0730524739
C        2.6617982838    0.4798509648   -1.3398748101
N       -0.0376448386   -1.7148970894    0.1581549218
N        3.9564734447    0.3698310286   -0.6357628533
N        6.1150692790   -0.1105687265    1.1496873396
O        1.9124938953   -2.2875762056   -0.8923866658
H       -1.3722202883    1.2414181943    1.0006787000
H        0.7157566260    2.0060620997   -0.1704091559
H       -1.8155631119   -1.2279080754    1.1385706624
H        3.9732948473   -1.5931481170    0.2411197664
H        4.4016485745   -1.5091483056   -1.4530351864
H        3.4240591559    0.5840873381    1.4310475148
H        3.5786826370    2.0821614132    0.5080355087
H        6.4293474738   -1.8695401093    0.0076992831
H        6.5407812761   -0.3320608034   -0.9042125791
H        5.5361010798    1.7145931936    2.0596143180
H        6.0202412475    1.8305304509    0.3414570114
H        2.5484654938    1.5291383639   -1.6302117410
H        2.7524604358   -0.1058109569   -2.2583276154
H       -0.2346178518   -2.7111759796    0.2028121163
H        5.6703796698   -0.6534514086    1.9001635094
H        7.1033497856   -0.0101792959    1.4056985345
30   
torsion grid (90,)
C       -0.8837578858    0.6305277621    0.2114901623
C        0.3492882847    0.9758165538   -0.4070228758
C       -1.0228397149   -0.6395743814    0.6976822078
C        1.3956037671    0.0886529106   -0.5274138367
C        1.2622821144   -1.2496571526    0.0243361980
C        4.6617939830   -0.8944625564   -0.7670904420
C        3.9456459666    0.8239877170    0.7650624384
C        6.1187871742   -0.7149607168   -0.3683928168
C        5.3693107408    1.0462470143    1.2612833176
C        2.6485944974    0.4896352941   -1.2889821697
N        0.0143740983   -1.5205821829    0.5968769279
N        3.9598109519    0.3794742077   -0.6198109302
N        6.1605537163   -0.2354953705    1.0743669430
O        2.1378316321   -2.1314291528    0.0376288971
H       -1.6991463682    1.3394407929    0.2873068179
H        0.4603558124    1.9783439061   -0.8165183030
H       -1.9268390083   -1.0076265555    1.1710306798
H        4.1959903180   -1.7080858138   -0.1941855092
H        4.6433552622   -1.1964324685   -1.8173932644
H        3.4285612058    0.1155947363    1.4378287917
H        3.4185880981    1.7793010267    0.8414666439
H        6.6788567777   -1.6510751538   -0.4170871029
H        6.6165242597    0.0539398991   -0.9621934647
H        5.4043773947    1.3034725508    2.3220491753
H        5.8800235244    1.8110759921    0.6738199401
H        2.5275514451    1.5331346836   -1.5985757304
H        2.7157177353   -0.1022970719   -2.2075619664
H       -0.0831148193   -2.4669493781    0.9549342533
H        5.7535699655   -0.9669344539    1.6710013437
H        7.1297145351   -0.1048505076    1.3835384808
30   
torsion grid (105,)
C       -0.8845393090    0.6893863380    0.1681925211
C        0.3356261790    0.9896191144   -0.4988753751
C       -1.0007635763   -0.5271709430    0.7815890358
C        1.3882479432    0.1051205670   -0.5361558225
C        1.2807619130   -1.1737635849    0.1466739625
C        4.7425910494   -0.8362439177   -0.8930031231
C        3.8741302801    0.6666220342    0.7980521819
C        6.1711222636   -0.6114310679   -0.4204337983
C        5.2728149300    0.9422731707    1.3336414575
C        2.6396883507    0.3963902287   -1.3366695049
N        0.0461000043   -1.4039302936    0.7600727990
N        3.9336805001    0.3471710104   -0.6184531790
N        6.1423322517   -0.2718247627    1.0602905389
O        2.1798628013   -2.0288474877    0.2320983598
H       -1.7103082611    1.3901884395    0.1829804677
H        0.4302352838    1.9457605249   -1.0104241332
H       -1.8955235838   -0.8554545330    1.2995008685
H        4.3214266430   -1.7458676608   -0.4364976306
H        4.7860757757   -1.0014285629   -1.9725103948
H        3.4104922432   -0.1347961743    1.3990579073
H        3.2804652995    1.5720953457    0.9486129581
H        6.7899839390   -1.5029063228   -0.5409117043
H        6.6370927341    0.2400138635   -0.9199458453
H        5.2755193740    1.1130297383    2.4122368714
H        5.7447776162    1.7812524969    0.8193868237
H        2.5321519540    1.3921905890   -1.7814789043
H        2.7028224848   -0.3146965924   -2.1655449217
H       -0.0375892163   -2.3100515891    1.2131289850
H        5.7585681564   -1.0759194476    1.5734866827
H        7.0932521560   -0.1188241385    1.4127074144
30   
torsion grid (120,)
C       -0.8493966043    0.7866745720    0.1727798991
C        0.3682995942    1.0085928931   -0.5303201242
C       -1.0088745242   -0.4003331914    0.8332695517
C        1.3762244514    0.0749671717   -0.5442341775
C        1.2237688297   -1.1757854860    0.1828203390
C        4.8340948862   -0.7835605355   -0.9671452346
C        3.8236688840    0.4818506157    0.8288284739
C        6.2353685556   -0.4669910654   -0.4645204589
C        5.1873984961    0.8696484808    1.3828016920
C        2.6297730389    0.2295629192   -1.3649707491
N       -0.0063650180   -1.3289338697    0.8273101613
N        3.9104876143    0.2842686035   -0.6088263503
N        6.1763160580   -0.2292215008    1.0340225531
O        2.0905638836   -2.0626511409    0.2679195557
H       -1.6438830550    1.5229251461    0.1764003081
H        0.4951175445    1.9366672945   -1.0845538296
H       -1.9086564128   -0.6657560154    1.3778273462
H        4.5010695719   -1.7651159146   -0.5857613762
H        4.8991221061   -0.8598703031   -2.0554475405
H        3.4591809634   -0.4124385048    1.3628181035
H        3.1350742888    1.3003723216    1.0506032781
H        6.9325788172   -1.2886970821   -0.6405615933
H        6.6222936879    0.4537733754   -0.9048176022
H        5.1776143290    0.9687920744    2.4702851060
H        5.5677342401    1.7841801410    0.9243905040
H        2.5446191232    1.1377659061   -1.9718974364
H        2.6850904088   -0.6187061998   -2.0537361634
H       -0.1276989229   -2.2148411861    1.3107954908
H        5.8777777657   -1.0986730222    1.4945250059
H        7.1083717018   -0.0039014782    1.3979666518
30   
torsion grid (135,)
C       -0.8163159797    0.9030133497    0.1399521353
C        0.4178624534    1.0105106669   -0.5612744609
C       -1.0555017657   -0.2364504102    0.8579732583
C        1.3655443691    0.0165871402   -0.5141521290
C        1.1288032193   -1.1850583115    0.2726220000
C        4.9311270617   -0.6973870968   -1.0205402127
C        3.8196463217    0.2630522168    0.8831494715
C        6.2997408662   -0.2720746896   -0.5069588484
C        5.1343638760    0.7673792281    1.4590351454
C        2.6282439642    0.0380656161   -1.3288191035
N       -0.1149538307   -1.2261093583    0.9092935222
N        3.9021435750    0.2300555742   -0.5714618186
N        6.2466637322   -0.1642785416    1.0063052346
O        1.9362198654   -2.1184436217    0.4086574520
H       -1.5629854493    1.6865339616    0.0971280486
H        0.6067687587    1.8975704721   -1.1626885107
H       -1.9745811466   -0.4159747534    1.4054958854
H        4.7155115716   -1.7380070110   -0.7142533642
H        4.9839409931   -0.6854757344   -2.1126552597
H        3.5758799805   -0.7197019965    1.3208725055
H        3.0390349796    0.9611460723    1.1932738692
H        7.0796401306   -0.9934192992   -0.7594423695
H        6.5728474506    0.7182881077   -0.8752751864
H        5.1332476188    0.7680141784    2.5510437346
H        5.3898255697    1.7590600204    1.0814244191
H        2.5613812653    0.8290961372   -2.0824618573
H        2.6819796246   -0.9218101543   -1.8551193406
H       -0.2972552742   -2.0772293002    1.4343108180
H        6.0718462520   -1.0979552346    1.3991830836
H        7.1515658038    0.1484252923    1.3743878084
30   
torsion grid (150,)
C       -0.7986327525    0.9890549448    0.0541809602
C        0.4476127060    0.9747256387   -0.6328279522
C       -1.1190197586   -0.0890558408    0.8331693829
C        1.3295073766   -0.0730914107   -0.5146673016
C        1.0072588413   -1.2084023309    0.3389353568
C        4.9772182176   -0.5829569343   -1.1149092559
C        3.8133875135    0.0392131144    0.8837088193
C        6.3004146570   -0.0440247325   -0.5893435911
C        5.0711245403    0.6410521248    1.4908235240
C        2.6029492807   -0.1695310660   -1.3058560001
N       -0.2468020823   -1.1325806681    0.9552610372
N        3.8579655948    0.1749798838   -0.5701320778
N        6.2809022991   -0.0873766787    0.9276628887
O        1.7494360976   -2.1799412476    0.5471423130
H       -1.4922903572    1.8149725429   -0.0453412874
H        0.7011266997    1.8113093971   -1.2808929640
H       -2.0539360765   -0.1764728123    1.3764427556
H        4.8958321850   -1.6646413035   -0.8953223559
H        4.9948717596   -0.4781637421   -2.2037264784
H        3.6894776878   -1.0052177490    1.2154027098
H        2.9643188754    0.6024738141    1.2770419690
H        7.1534767933   -0.6367380515   -0.9259104735
H        6.4403762364    1.0023108110   -0.8657378673
H        5.0994101301    0.5289491694    2.5766317604
H        5.1894658400    1.6911066136    1.2174229268
H        2.5489360261    0.4913180700   -2.1759107288
H        2.6728998190   -1.2039888254   -1.6679129355
H       -0.4876757869   -1.9361701566    1.5292911837
H        6.2424940319   -1.0684716659    1.2313301515
H        7.1484110941    0.3065717035    1.3078141989
30   
torsion grid (165,)
C       -0.7669947572    1.0662948248   -0.0256610978
C        0.4884968727    0.9313714571   -0.6810099593
C       -1.1653650034    0.0657783203    0.8186035533
C        1.3050023652   -0.1547356484   -0.4713489618
C        0.9025096206   -1.2061618190    0.4534221693
C        4.9949343098   -0.4617379847   -1.1651506269
C        3.8452674297   -0.1734228424    0.9146883109
C        6.2686402582    0.1727104983   -0.6245859970
C        5.0543791423    0.4958649226    1.5486349836
C        2.5904252548   -0.3655061633   -1.2215987961
N       -0.3586093131   -1.0139773091    1.0324909903
N        3.8177720925    0.1074853157   -0.5200156007
N        6.3148406340   -0.0267437359    0.8789318282
O        1.5810719829   -2.1992118935    0.7521846297
H       -1.4085882916    1.9217269689   -0.1981977369
H        0.8037793910    1.7048628500   -1.3785468285
H       -2.1140606727    0.0707555968    1.3448488500
H        5.0473476602   -1.5620298963   -1.0502066289
H        4.9576159636   -0.2566535041   -2.2392604955
H        3.8316953909   -1.2523186623    1.1437880154
H        2.9589058383    0.2572370793    1.3844840250
H        7.1689379800   -0.2790324869   -1.0460009373
H        6.2779017816    1.2506959908   -0.7936447386
H        5.1354120745    0.2750596118    2.6148428224
H        5.0465090241    1.5754729560    1.3881502426
H        2.5531120826    0.1673620766   -2.1761184675
H        2.6747598141   -1.4415159351   -1.4327212912
H       -0.6554734450   -1.7586256298    1.6574855433
H        6.3996947176   -1.0312326092    1.0784905684
H        7.1468581023    0.4244787169    1.2745702759
30   
torsion grid (180,)
C       -0.7319005067    1.1411411176   -0.1318202502
C        0.5298986317    0.8926895600   -0.7397634266
C       -1.2021646207    0.2292731831    0.7739310752
C        1.2833150655   -0.2141681766   -0.4283303588
C        0.8056786344   -1.1691272555    0.5624464096
C        4.9817963664   -0.3412243945   -1.1991188550
C        3.9081978655   -0.3766142101    0.9458926343
C        6.2032909106    0.3775328735   -0.6435753975
C        5.0730830250    0.3512242905    1.5973626334
C        2.5800719329   -0.5364006155   -1.1203655652
N       -0.4576110280   -0.8691666323    1.0907595647
N        3.7835506468    0.0261597660   -0.4538914304
N        6.3461799882    0.0380152791    0.8284635195
O        1.4236217679   -2.1687003054    0.9550134092
H       -1.3236711000    2.0119843589   -0.3860210824
H        0.9018910913    1.5944910845   -1.4837271447
H       -2.1616420680    0.3221347214    1.2717546921
H        5.1628508345   -1.4345215658   -1.2002368878
H        4.8702984506   -0.0375422345   -2.2440893355
H        4.0130482631   -1.4687901102    1.0694855704
H        3.0062116468   -0.0919236623    1.4887618382
H        7.1254317637    0.0758460854   -1.1443516792
H        6.0855546863    1.4609288719   -0.6999873384
H        5.2284546122    0.0367752239    2.6312515333
H        4.9452774989    1.4341434479    1.5501258231
H        2.5641737225   -0.1173758967   -2.1305348201
H        2.6661080765   -1.6300060624   -1.2044188774
H       -0.8072381478   -1.5481243078    1.7615796347
H        6.5479817519   -0.9652962760    0.9208152303
H        7.1444222139    0.5380461591    1.2349515722
