17   
torsion grid (-165,)
C       -1.2320527137    0.5544240969    2.2916408910
C       -0.9170991222    0.4964007100    3.6103976344
C       -0.1183949553   -0.0812377720    1.6235975944
C        1.1123846798   -1.1788198147   -0.4742919402
C       -1.1680301401    0.0297091305   -0.7157001813
C       -0.1533422099    1.1307643908   -0.5972884035
C        0.0693417730   -0.1835126665    0.1532515830
N        0.7898337122   -0.4689933046    2.5018252901
O        1.4578023578   -0.8824632090   -1.6533176100
O        1.4184586407   -2.1670919911    0.2311037427
O        0.2766904120   -0.1023492015    3.7816001414
H       -2.1217077532    0.9761878592    1.8456925448
H       -1.4243004502    0.8194820349    4.5118162092
H       -2.1366611476    0.1482115458   -0.2347815031
H       -1.1740517957   -0.5405125731   -1.6390575331
H        0.5234160586    1.2726417065   -1.4333424906
H       -0.4143814597    2.0104217275   -0.0124965145
17   
torsion grid (-150,)
C       -1.2821874283    0.3632775623    2.3304045346
C       -0.9020531535    0.4551662692    3.6311582618
C       -0.1061087252   -0.1120904015    1.6423485444
C        1.0265086696   -1.3980132970   -0.3855694328
C       -1.1353060859    0.0030956338   -0.7155531335
C       -0.0207067043    1.0095980762   -0.6290650611
C        0.0648045282   -0.2853596841    0.1764855953
N        0.8963534652   -0.2650636108    2.4894666051
O        1.3760015942   -1.2161142348   -1.5855293955
O        1.2701679671   -2.3496255844    0.3918710708
O        0.3878457044    0.0924813695    3.7688380381
H       -2.2560513740    0.5746157953    1.9127570831
H       -1.4168136457    0.7426993424    4.5401595492
H       -2.0937735360    0.2459027178   -0.2619672785
H       -1.1862144841   -0.6021767838   -1.6148857129
H        0.6743141789    1.0565560448   -1.4610878444
H       -0.2091436345    1.9322263964   -0.0836764799
17   
torsion grid (-135,)
C       -1.3411041351    0.1912327058    2.3694171085
C       -0.9373560205    0.3783532707    3.6534618377
C       -0.1243790341   -0.0677834678    1.6429249930
C        0.9282665552   -1.4304302644   -0.3585821041
C       -1.1429215969    0.1158615247   -0.7165467960
C        0.0495580120    1.0331304492   -0.6447921019
C        0.0320376742   -0.2507154099    0.1762585624
N        0.9202456469   -0.0053082454    2.4491495512
O        1.2243661025   -1.3365261067   -1.5819461355
O        1.1874684065   -2.3341399807    0.4704304123
O        0.4032246367    0.2712513699    3.7423539252
H       -2.3509501944    0.1942347916    1.9850014990
H       -1.4613099031    0.5798264287    4.5800659086
H       -2.0738687098    0.4491197105   -0.2624371985
H       -1.2457918316   -0.4937565120   -1.6085393647
H        0.7422489173    1.0174611733   -1.4799664214
H       -0.0665121408    1.9751779538   -0.1127522593
17   
torsion grid (-120,)
C       -1.3280361886    0.0195896694    2.3966303376
C       -0.9266098442    0.3038867657    3.6634057548
C       -0.1081269753   -0.0253415452    1.6352031121
C        0.8578018787   -1.4763912737   -0.3236881747
C       -1.1248759819    0.1885651235   -0.7192039959
C        0.1303836608    1.0234321867   -0.6836591044
C        0.0327469516   -0.2305978440    0.1703962631
N        0.9308685143    0.2511879811    2.4016214153
O        1.1153643602   -1.4695234160   -1.5583400058
O        1.1145517875   -2.3350917906    0.5544942076
O        0.4137394143    0.4504283234    3.7078723783
H       -2.3292888915   -0.1755514070    2.0395281781
H       -1.4486313780    0.4266931062    4.6046749879
H       -2.0207267816    0.5989961218   -0.2565021162
H       -1.2843771054   -0.4338687915   -1.5941389711
H        0.8081767512    0.9390540867   -1.5268700593
H        0.0860021132    1.9855304751   -0.1779477860
17   
torsion grid (-105,)
C       -1.3388099773   -0.1010879712    2.4285669760
C       -0.9867331968    0.2782020808    3.6843641040
C       -0.1401215534    0.0712614904    1.6537891546
C        0.7797235593   -1.4547885560   -0.2427526688
C       -1.1038648314    0.3127265440   -0.7171666478
C        0.2014801484    1.0700503124   -0.6848936272
C        0.0178375054   -0.1525152011    0.1941033440
N        0.8339021509    0.5587542799    2.3987403629
O        1.0195832903   -1.5303453195   -1.4778669531
O        1.0210676377   -2.2683048904    0.6838815864
O        0.3025985049    0.6794528441    3.7097511743
H       -2.2856199339   -0.4903430439    2.0815768056
H       -1.5132666331    0.3192357518    4.6302158371
H       -1.9759103985    0.7841268640   -0.2666088559
H       -1.2927102389   -0.3187649534   -1.5800049759
H        0.8776992700    0.9269549577   -1.5214118663
H        0.2141189798    2.0440937021   -0.2017490815
17   
torsion grid (-90,)
C       -1.2864808177   -0.2576124252    2.4275669634
C       -0.9551710782    0.2056018885    3.6594367300
C       -0.1716150323    0.1088157153    1.5978496834
C        0.6122609805   -1.4803386764   -0.2853053059
C       -1.1473057560    0.4125747429   -0.7600590748
C        0.2097392764    1.0752637980   -0.7550587947
C       -0.0440868224   -0.1211733473    0.1373419760
N        0.7311402441    0.7768433589    2.2895102754
O        0.8162373795   -1.6072108759   -1.5219300207
O        0.8233008369   -2.2835288584    0.6601029608
O        0.2440286897    0.8300340613    3.6231841486
H       -2.1591635882   -0.8195366142    2.1265345214
H       -1.4401096723    0.1726768846    4.6275972248
H       -1.9762728637    0.9446365146   -0.2959353912
H       -1.3939183121   -0.2137371679   -1.6122280051
H        0.8574704286    0.8802156928   -1.6034655290
H        0.3006383584    2.0495452963   -0.2820202531
17   
torsion grid (-75,)
C       -1.1995279900   -0.3936952875    2.4622540798
C       -0.9424423396    0.1736828029    3.6667612940
C       -0.1994168970    0.1575922173    1.5891802631
C        0.4919201930   -1.4873411091   -0.2758699915
C       -1.1427147997    0.5121051180   -0.7726833116
C        0.2546149750    1.0833615641   -0.7682412817
C       -0.0771856186   -0.0875383358    0.1317941615
N        0.5696672369    1.0139957664    2.2330943754
O        0.6749802331   -1.6481915868   -1.5113905993
O        0.6750111846   -2.2850418184    0.6818538587
O        0.1099176475    1.0222389609    3.5783901550
H       -1.9400422962   -1.1364951683    2.2039199309
H       -1.3895596435    0.0799322653    4.6490509156
H       -1.9350649030    1.0980785432   -0.3101206267
H       -1.4286739993   -0.1055349383   -1.6190081622
H        0.8879005736    0.8389041774   -1.6145771127
H        0.4098512477    2.0520579726   -0.3020093772
17   
torsion grid (-60,)
C       -1.0713971002   -0.5286090651    2.4706478940
C       -0.9188386546    0.1204295041    3.6511131746
C       -0.2179110479    0.1867421397    1.5611177893
C        0.4013351089   -1.4925993049   -0.3085578870
C       -1.1193317764    0.5903647547   -0.8042008734
C        0.3029630180    1.0910023961   -0.7890784757
C       -0.0861568446   -0.0652809518    0.1068740213
N        0.3764687754    1.1981715131    2.1655278226
O        0.6091471960   -1.6456645275   -1.5409166345
O        0.5028186506   -2.3212029790    0.6363020833
O       -0.0585822721    1.1609156435    3.5182376342
H       -1.6369323151   -1.4198265003    2.2451651881
H       -1.3217348363   -0.0303742533    4.6453321175
H       -1.8843460825    1.2092866264   -0.3393533971
H       -1.4306107879   -0.0129491463   -1.6517917805
H        0.9279820008    0.8162818569   -1.6320580161
H        0.5020377491    2.0494630410   -0.3193247964
17   
torsion grid (-45,)
C       -0.9100884396   -0.6240351735    2.5254524705
C       -0.8735239824    0.0998031130    3.6717236109
C       -0.2281967817    0.2027403469    1.5658077281
C        0.3490628305   -1.5285281038   -0.2943951733
C       -1.0503968084    0.6266853988   -0.8178423158
C        0.3916968816    1.0544011135   -0.7768918844
C       -0.0676379759   -0.0789658925    0.1196598529
N        0.1686926353    1.3370430758    2.1149506894
O        0.5509596213   -1.6862429791   -1.5273477582
O        0.4139557949   -2.3697144320    0.6433014150
O       -0.2367084067    1.2818174858    3.4747641282
H       -1.2844119253   -1.6191014243    2.3433400334
H       -1.2262441260   -0.0789647812    4.6802830711
H       -1.7907957380    1.2816506204   -0.3634998908
H       -1.3759156187    0.0346057977   -1.6677020172
H        1.0180807128    0.7405828716   -1.6049283071
H        0.6299968046    2.0027606967   -0.3053684724
17   
torsion grid (-30,)
C       -0.7543613550   -0.7191853742    2.6079074400
C       -0.8355575178    0.0657194333    3.7116556408
C       -0.2635747654    0.1655092216    1.5842598253
C        0.3041748286   -1.6186600641   -0.2578882430
C       -0.9732047391    0.5936443728   -0.8311829315
C        0.4808353857    0.9549175706   -0.7410055414
C       -0.0584351873   -0.1531395350    0.1496858335
N       -0.0742708418    1.3840377163    2.0641809039
O        0.5057139749   -1.7823214571   -1.4903686430
O        0.3419213036   -2.4678894096    0.6747942696
O       -0.4399747504    1.3329660458    3.4336896471
H       -0.9373494322   -1.7739254945    2.4769652115
H       -1.1312977696   -0.1168755552    4.7377037568
H       -1.6968792293    1.2814076540   -0.4000563098
H       -1.2941864793    0.0098796539   -1.6880916702
H        1.1218622595    0.6047195438   -1.5427759356
H        0.7449793765    1.8928258616   -0.2620588050
17   
torsion grid (-15,)
C        0.7926288791   -0.0374239257    2.7772857144
C        0.3101408201    0.7372509126    3.7819943413
C        0.1791715453    0.5036080295    1.5927806738
C        1.4574610385   -0.9838245213   -0.1785007497
C       -1.0069376590   -0.1935137665   -0.5605766604
C       -0.1301453934    0.9700734917   -0.9080472443
C        0.3144445019    0.0155450674    0.1956913360
N       -0.6065659013    1.5266978545    1.8949385646
O        2.2121848323   -1.3669174683    0.7582162628
O        1.4874566231   -1.3022999566   -1.3968218651
O       -0.5320816424    1.6844003152    3.3011071069
H        1.4963963419   -0.8549724105    2.7792155231
H        0.4669271639    0.7523497302    4.8538086660
H       -1.9185189921    0.0056514062   -0.0030563794
H       -1.0104109400   -1.0389942354   -1.2407223510
H        0.4496109351    0.8920271927   -1.8214884661
H       -0.4520960465    1.9606612205   -0.6000405854
17   
torsion grid (0,)
C        0.8608924959    0.0706699179    2.7609014090
C        0.3253440496    0.7923143362    3.7783581478
C        0.0804990300    0.4521109217    1.6129389282
C        1.3225486050   -1.0700470421   -0.1625887932
C       -1.0768595531   -0.1211872858   -0.5974666092
C       -0.1200205718    0.9942998223   -0.8799275505
C        0.2212651635   -0.0252286241    0.2116172205
N       -0.8457437399    1.3390760264    1.9483478860
O        2.0605088532   -1.4887291303    0.7725763543
O        1.3452354322   -1.3809147294   -1.3830905897
O       -0.6977737582    1.5649187633    3.3386276444
H        1.6726757221   -0.6394628270    2.7318030442
H        0.5474759525    0.8695674090    4.8358294945
H       -1.9949722189    0.1181490043   -0.0678871231
H       -1.1040206477   -0.9429928479   -1.3051707958
H        0.4869690788    0.9118880496   -1.7752694511
H       -0.3886828257    1.9916594902   -0.5426911268
17   
torsion grid (15,)
C        0.9533309386    0.1472985669    2.7294944399
C        0.3729520806    0.8088607974    3.7628556421
C        0.0414955897    0.3422150287    1.6327700876
C        1.2529789366   -1.2210631371   -0.1205227133
C       -1.0686830349   -0.1167969089   -0.6310311026
C       -0.0287485257    0.9385572581   -0.8511038658
C        0.1902206014   -0.1293016416    0.2313543822
N       -0.9995679297    1.0695595693    2.0104871232
O        1.9814363474   -1.6342359349    0.8242065185
O        1.2626399608   -1.5625267130   -1.3329683742
O       -0.7958707298    1.3777729249    3.3783312814
H        1.8574553393   -0.4383495837    2.6720008282
H        0.6465056360    0.9596765036    4.8001566586
H       -1.9941647527    0.1737416103   -0.1424361904
H       -1.1146521300   -0.9199911973   -1.3585498748
H        0.6102486731    0.8377369077   -1.7223200270
H       -0.2428537734    1.9450077088   -0.5007156527
17   
torsion grid (30,)
C        0.9684798586    0.2868592400    2.6657173145
C        0.3686624696    0.8413985071    3.7490872395
C       -0.0513987285    0.3102696165    1.6505410384
C        1.1111936183   -1.2330603835   -0.1287679663
C       -1.1429627510    0.0051569854   -0.6512170541
C       -0.0452225160    1.0177153742   -0.8026673708
C        0.0880292693   -0.1074071408    0.2334858656
N       -1.1690652001    0.8443064470    2.1159482837
O        1.8055039646   -1.6879557087    0.8217143637
O        1.1283068071   -1.5493024634   -1.3478365552
O       -0.9110057947    1.1912969190    3.4669320727
H        1.9497759024   -0.1442782298    2.5464442743
H        0.6945144023    1.0398641128    4.7630017084
H       -2.0677218244    0.3213258589   -0.1781897205
H       -1.2101793219   -0.7609766681   -1.4160433965
H        0.6106627754    0.9234749402   -1.6623448653
H       -0.2194367346    2.0199924107   -0.4185355696
17   
torsion grid (45,)
C        0.9689209490    0.4618875818    2.5768701330
C        0.3553601028    0.8862222510    3.7094109981
C       -0.1061127787    0.2983144820    1.6350562178
C        1.0061087875   -1.2256644547   -0.1625551110
C       -1.1813943465    0.1306960870   -0.6916624758
C       -0.0333592414    1.0982636124   -0.7922988366
C        0.0269924511   -0.0622803212    0.2037368881
N       -1.2666782603    0.6164383584    2.1805427868
O        1.6807362552   -1.6966037079    0.7935448584
O        1.0173725361   -1.5400735970   -1.3819210869
O       -0.9841059695    0.9934765126    3.5201336444
H        2.0043473870    0.2194249921    2.3964362936
H        0.7085147485    1.1330783874    4.7033484822
H       -2.1005274724    0.4748302510   -0.2276410822
H       -1.2709033276   -0.6055133149   -1.4831533541
H        0.6321471267    1.0031429451   -1.6448507641
H       -0.1707345979    2.0979999844   -0.3858294387
17   
torsion grid (60,)
C        0.9779322389    0.6406620061    2.5118378098
C        0.3646120520    0.9276960175    3.6863465024
C       -0.0984491020    0.2767143573    1.6307373062
C        0.9450252641   -1.2547269729   -0.1760788167
C       -1.1642846608    0.2225853707   -0.7089279036
C        0.0353967853    1.1332621601   -0.7815630904
C        0.0246768034   -0.0434933660    0.1892270448
N       -1.2636554360    0.3664700620    2.2437315729
O        1.5925947262   -1.7467841435    0.7873493628
O        0.9447688195   -1.5738782098   -1.3940454258
O       -0.9787892837    0.7752155833    3.5749848891
H        2.0308050093    0.6116124844    2.2761427616
H        0.7226153897    1.2297817603    4.6631400684
H       -2.0696136700    0.6062680169   -0.2483487707
H       -1.2871267578   -0.4917994930   -1.5159465770
H        0.7018441735    1.0200925493   -1.6314600141
H       -0.0567489006    2.1343000329   -0.3646207252
17   
torsion grid (75,)
C        0.9371977118    0.8234165468    2.4977602090
C        0.3342417093    0.9798807223    3.7022853782
C       -0.0812147686    0.2470859634    1.6629094497
C        0.8960792773   -1.3258568093   -0.1343665131
C       -1.1286595937    0.2565082494   -0.6872673892
C        0.1151095427    1.1100107326   -0.7477492223
C        0.0420440872   -0.0625842859    0.2179915198
N       -1.2126213212    0.1074169729    2.3262020473
O        1.4703192033   -1.8680968602    0.8470392610
O        0.9184958431   -1.6294939938   -1.3563444864
O       -0.9538140403    0.5637101938    3.6476030046
H        1.9618077041    1.0212818275    2.2187171386
H        0.6678980216    1.3510169790    4.6638043445
H       -2.0190362245    0.6809062135   -0.2324463287
H       -1.2798523281   -0.4491718292   -1.4973582855
H        0.7795031094    0.9679849456   -1.5950122405
H        0.0646730753    2.1160930242   -0.3348705041
17   
torsion grid (90,)
C        0.8700579352    0.9693654684    2.4569141420
C        0.3135214687    1.0081025844    3.6941377849
C       -0.0562056314    0.1983899863    1.6739310309
C        0.8231308705   -1.4219008326   -0.1391850049
C       -1.0973315196    0.2913879651   -0.6766232542
C        0.2009025620    1.0611652947   -0.7333670906
C        0.0512320483   -0.1072496259    0.2256590489
N       -1.1029358185   -0.1545074158    2.3947163248
O        1.3881069832   -1.9913062591    0.8303602038
O        0.8040938897   -1.7242633033   -1.3618987040
O       -0.8664602710    0.3473449520    3.7030582680
H        1.8156573777    1.3745925699    2.1258891263
H        0.6170300049    1.4433119088    4.6386340252
H       -1.9575317194    0.7732164629   -0.2193222841
H       -1.2968958613   -0.3995462147   -1.4891522128
H        0.8513084034    0.8808998766   -1.5841273140
H        0.2151557809    2.0681393981   -0.3193465244
17   
torsion grid (105,)
C        0.7684835549    1.1009950187    2.4516039492
C        0.2711080475    1.0783130600    3.7153051273
C       -0.0412599418    0.1558385240    1.7319613606
C        0.7105566635   -1.5444373616   -0.0890642130
C       -1.0879535152    0.3001249084   -0.6062078759
C        0.2607339887    0.9732067552   -0.6865375745
C        0.0442689281   -0.1722860449    0.2860514193
N       -0.9756015996   -0.3522487684    2.5131069937
O        1.2663154882   -2.1459501550    0.8638043517
O        0.6305163507   -1.8480913898   -1.3097805802
O       -0.7714289817    0.2234343456    3.7947020188
H        1.6098786382    1.6602393803    2.0673054148
H        0.5353390033    1.5880731345    4.6339347411
H       -1.9043493515    0.8478296347   -0.1415925655
H       -1.3478653424   -0.3850201045   -1.4065363469
H        0.8833067492    0.7410727733   -1.5452819390
H        0.3494948614    1.9823771928   -0.2872985735
17   
torsion grid (120,)
C        0.6605172695    1.1581982180    2.4176201517
C        0.2158845320    1.0422491833    3.6965096947
C        0.0210884792    0.0770363219    1.7160374605
C        0.6841175095   -1.6239244777   -0.1662670404
C       -1.0102556900    0.3359033363   -0.6085648682
C        0.3760425443    0.9239015417   -0.6881266566
C        0.1004602347   -0.2270762702    0.2638559331
N       -0.7725077571   -0.5997891839    2.5256757357
O        1.2708518228   -2.2642690093    0.7393938052
O        0.5240471448   -1.8978076734   -1.3869559117
O       -0.6416639026    0.0061875845    3.8020241592
H        1.3694959795    1.8688597855    2.0171064687
H        0.4093342627    1.5924817945    4.6094094729
H       -1.7852755519    0.9258980797   -0.1242121951
H       -1.3199781108   -0.3190243560   -1.4164382686
H        0.9749859231    0.6716350129   -1.5576230024
H        0.5290454352    1.9201599019   -0.2768357399
17   
torsion grid (135,)
C        0.5242630279    1.2602906098    2.3865835643
C        0.1596799537    1.0903383317    3.6846589034
C        0.0657057911    0.0660552650    1.7241334803
C        0.6072343580   -1.6604716891   -0.1987904518
C       -0.9733081932    0.4092916746   -0.5734248502
C        0.4468864451    0.8984895260   -0.6840423293
C        0.1183241461   -0.2385298346    0.2703700782
N       -0.5517186996   -0.7308556790    2.5778630176
O        1.2271661855   -2.3313653246    0.6594941319
O        0.3556609877   -1.9168400610   -1.4087932136
O       -0.4857666135   -0.0826709479    3.8394699134
H        1.0721246130    2.0853372077    1.9544745039
H        0.2881649054    1.6848499677    4.5811852878
H       -1.6920980974    1.0491102992   -0.0655474454
H       -1.3483822215   -0.2195635043   -1.3743182232
H        1.0041935841    0.6060145410   -1.5681873746
H        0.6828575174    1.8812511367   -0.2809496377
17   
torsion grid (150,)
C        0.3476354703    1.3032687583    2.3471125801
C        0.0752089883    1.1017663898    3.6624399165
C        0.0928653828    0.0262970276    1.7250169363
C        0.5260267808   -1.7263303542   -0.2216239351
C       -0.9148120077    0.4557685734   -0.5608448368
C        0.5372191434    0.8300446660   -0.6809307514
C        0.1291033959   -0.2850813052    0.2725479070
N       -0.3204278610   -0.8518471693    2.6216744085
O        1.1958346083   -2.4124183238    0.5845950403
O        0.1700323374   -1.9788966725   -1.4067853142
O       -0.3276126746   -0.1669650887    3.8683081240
H        0.7010036019    2.2110706920    1.8796392523
H        0.1262103841    1.7348778256    4.5402238971
H       -1.5772104863    1.1465086034   -0.0428687729
H       -1.3436591879   -0.1405136419   -1.3596285285
H        1.0622039638    0.4954893028   -1.5698614584
H        0.8643926380    1.7861353855   -0.2781729708
17   
torsion grid (165,)
C       -0.9633346051    0.8637472905    2.3114063160
C       -0.9461151945    0.4649589740    3.6084876910
C       -0.1390549332   -0.1039302666    1.6224648112
C        1.2485890465   -1.0225684795   -0.4636568117
C       -1.2011161779   -0.0703701548   -0.6735962918
C       -0.2450897005    1.0879220238   -0.6477437572
C        0.0811314179   -0.1696993473    0.1545114798
N        0.3140106560   -1.0131484214    2.4677980048
O        1.0777395907   -1.3185690019   -1.6803933854
O        2.2231944647   -1.2439839664    0.2907091313
O       -0.2002488006   -0.6473808686    3.7473978042
H       -1.4747947143    1.7189956776    1.8928402287
H       -1.3925446422    0.8581448544    4.5141867749
H       -2.1435395464    0.0285743787   -0.1388139512
H       -1.1953276883   -0.6975969654   -1.5588427876
H        0.3762772080    1.2365997430   -1.5250005662
H       -0.5263637238    1.9946436581   -0.1164394021
17   
torsion grid (180,)
C       -1.1179729922    0.7279240955    2.2815558053
C       -0.9686025219    0.5123779512    3.6118761344
C       -0.1123385803   -0.1086331121    1.6584040349
C        1.2064379914   -1.1229453159   -0.4538380609
C       -1.1620080875   -0.0395548958   -0.6579859503
C       -0.1781703156    1.0879342320   -0.5859475432
C        0.1055224233   -0.2045836140    0.1885528148
N        0.5766953242   -0.7675117633    2.5755431153
O        1.2306878440   -1.0660308781   -1.7178621588
O        1.9161519560   -1.7887769693    0.3320869897
O        0.0243977788   -0.3668563402    3.8361475219
H       -1.8314579530    1.3803106736    1.7980688237
H       -1.4760112768    0.8987240626    4.4881977126
H       -2.1141942729    0.0582571932   -0.1412687566
H       -1.1611323945   -0.6311521095   -1.5670324876
H        0.4641181114    1.2320743412   -1.4479502052
H       -0.4384884927    1.9784440038   -0.0180961725
