16   
torsion grid (-165,)
C        1.9747800360   -1.1068301127   -0.2026466800
C       -1.2203046181    0.5154125165    0.4520192749
C       -1.9228490012   -0.7896489472    0.7809454212
C        0.8273369951    1.6265627214   -0.3301105647
N        0.6253066189   -0.8096484982   -0.2276370865
N        0.1525875124    0.4390537069    0.2149017888
O        2.8309277368   -0.5207382465    0.4329865955
O       -1.8061718119    1.5907818304    0.4258659162
H        2.1770808818   -1.9991984996   -0.8258775304
H       -1.2943827501   -1.4610278764    1.3690730515
H       -2.2081712908   -1.3129781147   -0.1395648737
H       -2.8368237326   -0.5456682923    1.3231295456
H        1.8824589115    1.5877546405   -0.0650631438
H        0.7123877749    1.6777958075   -1.4208867809
H        0.3582669148    2.5014582531    0.1152153972
H        0.1515781916   -1.1742655671   -1.0546297490
16   
torsion grid (-150,)
C        1.9257074085   -1.1489318955   -0.1322058077
C       -1.2079114934    0.5168977544    0.4771945526
C       -1.8885336870   -0.8005320197    0.8011805627
C        0.8097867175    1.6479790535   -0.3854987430
N        0.6085951560   -0.7835260008   -0.3410934870
N        0.1375431768    0.4481055100    0.1248559046
O        2.6989528665   -0.6200782784    0.6431049953
O       -1.7855368834    1.5952723009    0.5450893085
H        2.1845386446   -2.0253932043   -0.7573870164
H       -1.2410834343   -1.4646621000    1.3772748759
H       -2.1712461805   -1.3250062298   -0.1187638866
H       -2.7981364516   -0.5746506753    1.3580827914
H        1.8714566804    1.5861935410   -0.1470594581
H        0.6699686247    1.7474964132   -1.4700602735
H        0.3664156545    2.5109813145    0.1076352158
H        0.2234915699   -1.0913301620   -1.2346289527
16   
torsion grid (-135,)
C        1.8575039511   -1.1873862079   -0.0838185073
C       -1.1919723822    0.5186562802    0.4958116353
C       -1.8432206884   -0.8132217897    0.8215047588
C        0.7991595586    1.6766323116   -0.4313841955
N        0.5966589299   -0.7531280840   -0.4475536435
N        0.1113168663    0.4653827134    0.0174388799
O        2.5424915562   -0.7136083588    0.8019012093
O       -1.7578441571    1.5932176807    0.6611535387
H        2.1602722515   -2.0569662957   -0.6990851003
H       -1.1745150810   -1.4602958947    1.3936448262
H       -2.1189381310   -1.3479567025   -0.0938849300
H       -2.7496503158   -0.6070749435    1.3906997139
H        1.8516990941    1.6134296312   -0.1505858267
H        0.7067834980    1.8025762529   -1.5179784133
H        0.3321560131    2.5256378544    0.0648828997
H        0.2821074059   -1.0370791258   -1.3750262634
16   
torsion grid (-120,)
C        1.7764461769   -1.2154578381   -0.0495665610
C       -1.1696305851    0.5198776789    0.5147194521
C       -1.7938543506   -0.8244426929    0.8413540564
C        0.7938093726    1.7008485522   -0.4720066723
N        0.5823975981   -0.7267757275   -0.5438404892
N        0.0744630556    0.4851690058   -0.0989184826
O        2.3664379536   -0.7842760680    0.9221980095
O       -1.7098249588    1.5870132475    0.7824196200
H        2.1206401159   -2.0823544809   -0.6467291359
H       -1.1069751643   -1.4522404227    1.4145374915
H       -2.0597377665   -1.3708469687   -0.0692128437
H       -2.6980906679   -0.6358615866    1.4197541125
H        1.8190321889    1.6472219424   -0.0983351864
H        0.8006952694    1.8297216605   -1.5614346883
H        0.2760406552    2.5427900910   -0.0149185131
H        0.3321594764   -1.0015710711   -1.4922995875
16   
torsion grid (-105,)
C        1.6895392991   -1.2306909098   -0.0283866238
C       -1.1388578230    0.5178792013    0.5338294232
C       -1.7418489152   -0.8360819472    0.8586028767
C        0.7870302746    1.7205001756   -0.5043247828
N        0.5674885544   -0.7021924644   -0.6338366356
N        0.0287318135    0.5051114389   -0.2177838598
O        2.1818684176   -0.8286719369    1.0087031521
O       -1.6356461732    1.5747941169    0.9047341021
H        2.0737320200   -2.0981540470   -0.5997360817
H       -1.0451677713   -1.4383234309    1.4485506018
H       -1.9824034412   -1.4002142888   -0.0473010726
H       -2.6525454942   -0.6630357094    1.4315299801
H        1.7689266082    1.6709795115   -0.0252386581
H        0.9079696072    1.8459105629   -1.5862238215
H        0.2230440141    2.5610835883   -0.1025585081
H        0.3721473785   -0.9800785392   -1.5928395100
16   
torsion grid (-90,)
C        1.5985440584   -1.2439807224   -0.0084930211
C       -1.0986898739    0.5110731300    0.5514069832
C       -1.6848887082   -0.8498733526    0.8732027598
C        0.7738532371    1.7416809651   -0.5330311079
N        0.5628995636   -0.6715641444   -0.7143370154
N       -0.0143145354    0.5271375691   -0.3224611571
O        1.9870171456   -0.8747118153    1.0842891808
O       -1.5451903856    1.5543143390    1.0112931648
H        2.0178350290   -2.1121257211   -0.5532633768
H       -0.9797406113   -1.4318972058    1.4741287387
H       -1.9088574430   -1.4245566983   -0.0295766008
H       -2.5986372264   -0.6897624938    1.4451309904
H        1.7034017331    1.6989836441    0.0432724826
H        1.0023030712    1.8524159213   -1.5977292091
H        0.1744748439    2.5866398941   -0.1975035248
H        0.4139984711   -0.9549579873   -1.6786087055
16   
torsion grid (-75,)
C        1.5097690305   -1.2733009915    0.0140302090
C       -1.0484264093    0.5025145363    0.5708293555
C       -1.6249614460   -0.8639946025    0.8817243226
C        0.7527031486    1.7756386519   -0.5613951624
N        0.5887763745   -0.6268829486   -0.7759462894
N       -0.0356726240    0.5516865638   -0.3910701812
O        1.8031815727   -0.9519797691    1.1516327142
O       -1.4518660045    1.5302041747    1.0983509053
H        1.9402811558   -2.1470493621   -0.5124503918
H       -0.9249828723   -1.4264747264    1.5069130933
H       -1.8190599988   -1.4484901318   -0.0212242812
H       -2.5522953944   -0.7142782501    1.4345211318
H        1.6397147141    1.7568664050    0.0806121934
H        1.0553336227    1.8648436023   -1.6084351272
H        0.1237611793    2.6207639282   -0.2865637168
H        0.4477523204   -0.9312517583   -1.7338081930
16   
torsion grid (-60,)
C        1.4390234838   -1.3100581684    0.0237227019
C       -0.9824208584    0.4896207705    0.6010663557
C       -1.5760687060   -0.8741017871    0.8887743897
C        0.7236468471    1.8152504033   -0.5866759131
N        0.6405781243   -0.5791828049   -0.8221519050
N       -0.0403274515    0.5702234199   -0.4344601758
O        1.6624894950   -1.0380317225    1.1900034030
O       -1.3318986077    1.5018780495    1.1912955224
H        1.8567736675   -2.1941078087   -0.4955744359
H       -0.9160677789   -1.4216742740    1.5675931356
H       -1.7153050688   -1.4725320160   -0.0149051308
H       -2.5351707853   -0.7193089801    1.3837026739
H        1.5590596297    1.8511787680    0.1209452808
H        1.1029932376    1.8694188865   -1.6098435320
H        0.0545386177    2.6524892389   -0.3955898129
H        0.4621645233   -0.9222466532   -1.7601819756
16   
torsion grid (-45,)
C        1.3786857842   -1.3646355813    0.0195206623
C       -0.9106622043    0.4754862433    0.6400683083
C       -1.5373209027   -0.8768723114    0.9078410989
C        0.6861782194    1.8540238335   -0.6140365651
N        0.7111450460   -0.5330784139   -0.8493286370
N       -0.0312582794    0.5804394886   -0.4518712490
O        1.5270256663   -1.1738596219    1.2132219251
O       -1.2086648901    1.4750529053    1.2775727696
H        1.7864463771   -2.2413089411   -0.5196465262
H       -0.9720568581   -1.3829205932    1.6944074950
H       -1.5636906863   -1.5211327076    0.0261076432
H       -2.5522881679   -0.7024598794    1.2684335476
H        1.4907870369    1.9525381712    0.1227989817
H        1.1036971486    1.8867271626   -1.6227248837
H       -0.0219038430    2.6702821075   -0.4807080810
H        0.5178889226   -0.8794665406   -1.7839359077
16   
torsion grid (-30,)
C        1.3348364936   -1.4169766372    0.0104811442
C       -0.8418857233    0.4616497751    0.6812081672
C       -1.5141559124   -0.8715625802    0.9324236217
C        0.6432876416    1.8795532843   -0.6418041505
N        0.7870569722   -0.4953507947   -0.8544717149
N       -0.0268830356    0.5795047555   -0.4644667817
O        1.3986912553   -1.3149737421    1.2222869228
O       -1.0846736521    1.4531889827    1.3524886977
H        1.7540808024   -2.2699778885   -0.5568551977
H       -1.0587124956   -1.3422137488    1.8059031569
H       -1.4480589504   -1.5584347294    0.0861003163
H       -2.5638927734   -0.6687487969    1.1561203579
H        1.4321273443    2.0280004987    0.1033834875
H        1.0737788540    1.9057032768   -1.6450654169
H       -0.0977095984    2.6706361258   -0.5382271657
H        0.6161211472   -0.8211824592   -1.8017848628
16   
torsion grid (-15,)
C        1.3093438304   -1.4771799146    0.0006176736
C       -0.7912939560    0.4541528604    0.7196363613
C       -1.5089999415   -0.8563783759    0.9605406780
C        0.5963298035    1.8920768198   -0.6730071914
N        0.8732473026   -0.4628740449   -0.8246136880
N       -0.0207323062    0.5690551456   -0.4628663833
O        1.2728035811   -1.4901318682    1.2179654862
O       -0.9924158696    1.4448712905    1.4047905106
H        1.7663291373   -2.2826388320   -0.6055435072
H       -1.1270114791   -1.3156978100    1.8732879657
H       -1.4068494000   -1.5652051869    0.1367435674
H       -2.5665687696   -0.6199990122    1.1049851058
H        1.3774959408    2.0962099807    0.0667581845
H        1.0265798917    1.9091819269   -1.6769540762
H       -0.1772915893    2.6544432634   -0.5941490750
H        0.7730421931   -0.7310709208   -1.8004710300
16   
torsion grid (0,)
C        0.2014260202   -1.3761437520   -1.6343047593
C       -1.1600620416    0.5261565885    0.2008720962
C       -1.7909809109   -0.7778323824    0.6373414822
C        0.8066188609    1.8746367872   -0.2642343152
N        0.8418504146   -0.4013341296   -0.8987959911
N        0.2461081811    0.5330822931   -0.0085332678
O       -0.9679392487   -1.3927301971   -1.9755122868
O       -1.7685914979    1.5842536347    0.2197330631
H        0.9385466395   -2.1366020660   -1.9559666112
H       -1.0702334733   -1.5873996644    0.7589187358
H       -2.5464121583   -1.0813611478   -0.0879369580
H       -2.2825514706   -0.5845754931    1.5953430054
H        1.8963860366    1.7913731099   -0.2658763822
H        0.4668398186    2.2832517615   -1.2213555622
H        0.4961508409    2.5403403987    0.5396539345
H        1.7426938730   -0.7082310370   -0.5390707781
16   
torsion grid (15,)
C        0.1870554796   -1.3069042559   -1.6458292014
C       -1.1436908413    0.5188383439    0.2392582841
C       -1.7551837463   -0.8063644401    0.6399791666
C        0.7967792227    1.8825447977   -0.3160045654
N        0.8525570332   -0.4423328432   -0.8034186023
N        0.2524573051    0.5493741767    0.0036034984
O       -0.9420065525   -1.1713459416   -2.0820411732
O       -1.7692243170    1.5667842290    0.2824489004
H        0.8562844006   -2.1410242532   -1.9311390617
H       -1.0189884176   -1.6008059730    0.7756059984
H       -2.4761039373   -1.1162431642   -0.1178263157
H       -2.2869459429   -0.6417662584    1.5808923209
H        1.8867804793    1.8105758547   -0.3211733108
H        0.4458949493    2.2398157333   -1.2898346945
H        0.4805797788    2.5827438627    0.4557513068
H        1.6836049905   -0.8370051642   -0.3699971452
16   
torsion grid (30,)
C        0.1930477135   -1.2447934041   -1.6657988217
C       -1.1283659146    0.5176333335    0.3009066170
C       -1.7328344947   -0.8249652790    0.6536654194
C        0.7857866002    1.8776849483   -0.3721735555
N        0.8426313721   -0.4852190295   -0.7178333793
N        0.2516527980    0.5590875731    0.0101802352
O       -0.8822129306   -0.9892620438   -2.1771271306
O       -1.7572708848    1.5614682809    0.3882951931
H        0.8087633545   -2.1236864618   -1.9372798370
H       -0.9881709015   -1.6029334073    0.8345005730
H       -2.3891121555   -1.1456994655   -0.1576877859
H       -2.3370492714   -0.6828766679    1.5524723598
H        1.8759881384    1.8143248258   -0.3768147280
H        0.4286505733    2.1827029774   -1.3616473769
H        0.4628219704    2.6115539040    0.3645663396
H        1.6155239168   -0.9381353799   -0.2379487168
16   
torsion grid (45,)
C        0.2066580119   -1.1879489064   -1.7027071102
C       -1.1164664080    0.5205486902    0.3815457786
C       -1.7196410114   -0.8352917968    0.6834914498
C        0.7750423405    1.8596985288   -0.4256288056
N        0.8051928599   -0.5279958654   -0.6546770464
N        0.2388239053    0.5613232386    0.0099476834
O       -0.8106204000   -0.8392304459   -2.2744066152
O       -1.7357902718    1.5634310909    0.5338358811
H        0.7895567049   -2.0882780173   -1.9768599370
H       -0.9760508625   -1.5838725499    0.9662203092
H       -2.2570607669   -1.1915161019   -0.1988782198
H       -2.4366472566   -0.7019197869    1.4951034948
H        1.8655962099    1.8012743782   -0.4157008047
H        0.4272908119    2.1146025912   -1.4326585744
H        0.4396816872    2.6251064406    0.2723188261
H        1.5542843299   -1.0030467836   -0.1606709043
16   
torsion grid (60,)
C        0.2311046194   -1.1283643645   -1.7527005541
C       -1.1080843956    0.5235984636    0.4638609359
C       -1.7175713307   -0.8381559368    0.7267012866
C        0.7618160018    1.8276517530   -0.4751084270
N        0.7486347593   -0.5761572740   -0.6062127395
N        0.2185291179    0.5524885546    0.0104035788
O       -0.7250833178   -0.6964422753   -2.3718061608
O       -1.7035743108    1.5689783794    0.6823516034
H        0.7991938129   -2.0325574667   -2.0449990031
H       -0.9949100315   -1.5533367305    1.1272299324
H       -2.1220809269   -1.2412406063   -0.2061013966
H       -2.5371704858   -0.7026821023    1.4328870303
H        1.8522811151    1.7856108575   -0.4219198483
H        0.4480006735    2.0196342455   -1.5069015166
H        0.3907176190    2.6242102745    0.1675183620
H        1.5080469645   -1.0463510674   -0.1249276782
16   
torsion grid (75,)
C        0.2709437131   -1.0876896000   -1.8090975675
C       -1.1054143311    0.5271884838    0.5374875863
C       -1.7296174055   -0.8330390523    0.7752576846
C        0.7469416268    1.7942180192   -0.5162350911
N        0.6821784922   -0.6216584726   -0.5827878897
N        0.1789702725    0.5400040935   -0.0133289643
O       -0.6277333120   -0.6054591545   -2.4749145445
O       -1.6635279362    1.5755838965    0.8317830495
H        0.8514307707   -1.9816860218   -2.1086971497
H       -1.0281232995   -1.5392066431    1.2267518378
H       -2.0709456183   -1.2537317847   -0.1753984574
H       -2.5896960237   -0.6929348363    1.4299135841
H        1.8316900093    1.7776377470   -0.3787740415
H        0.5096678315    1.9283727842   -1.5769050601
H        0.3153710059    2.6120866562    0.0583632055
H        1.4777140886   -1.0528014110   -0.1231427767
16   
torsion grid (90,)
C        0.3286565600   -1.0537850813   -1.8782117111
C       -1.1066800262    0.5290408303    0.5922387482
C       -1.7443553821   -0.8250969699    0.8352230131
C        0.7267562276    1.7656438687   -0.5507285560
N        0.6116875862   -0.6605623659   -0.5883532607
N        0.1229097544    0.5258724481   -0.0618913041
O       -0.4876621398   -0.5215029621   -2.6074170093
O       -1.6184836499    1.5808995172    0.9539754550
H        0.9217971053   -1.9453150719   -2.1603663267
H       -1.0546322314   -1.5231565485    1.3173546562
H       -2.0610973118   -1.2689102416   -0.1133404015
H       -2.6169255100   -0.6708671220    1.4696574727
H        1.7998675128    1.7626813544   -0.3351270498
H        0.5652032726    1.8706548957   -1.6281680419
H        0.2506724099    2.5935212710   -0.0275088873
H        1.4121357065   -1.0722331179   -0.1170613916
16   
torsion grid (105,)
C        0.3847628231   -1.0355931653   -1.9518606131
C       -1.1062779518    0.5304427730    0.6361443564
C       -1.7527137264   -0.8177109278    0.8947937975
C        0.7038120828    1.7491699677   -0.5768051610
N        0.5373502216   -0.6807273320   -0.6268501204
N        0.0425709929    0.5204808823   -0.1438771043
O       -0.3357741633   -0.4686063973   -2.7511876144
O       -1.5557997347    1.5808302516    1.0789101790
H        0.9883904821   -1.9326999956   -2.1913825023
H       -1.0659545796   -1.5066790984    1.3952868048
H       -2.0640230854   -1.2841955199   -0.0441094793
H       -2.6241695582   -0.6500440884    1.5272601352
H        1.7524215800    1.7476991999   -0.2586350632
H        0.6472053291    1.8416606093   -1.6650879864
H        0.1838028893    2.5837036918   -0.1085941964
H        1.3142462827   -1.0908461467   -0.1137300267
16   
torsion grid (120,)
C        0.4393843273   -1.0163568112   -2.0212533187
C       -1.1007014381    0.5275549339    0.6719961032
C       -1.7564064679   -0.8126424445    0.9503365867
C        0.6754510577    1.7344289182   -0.5977008001
N        0.4589636105   -0.6924568964   -0.6782825517
N       -0.0499384951    0.5194137482   -0.2342727548
O       -0.1807138407   -0.4210064004   -2.8811200395
O       -1.4721248412    1.5716099656    1.1956930958
H        1.0509185941   -1.9193682386   -2.2140687820
H       -1.0732346500   -1.4879079388    1.4753783631
H       -2.0606741133   -1.3056846561    0.0236132336
H       -2.6276149379   -0.6288480131    1.5787994238
H        1.6851462770    1.7274796702   -0.1687717677
H        0.7351910767    1.8118526296   -1.6858296417
H        0.1211719169    2.5811281370   -0.1955180638
H        1.2050318081   -1.1023118994   -0.1187236809
16   
torsion grid (135,)
C        0.5050927940   -0.9861426659   -2.0787677744
C       -1.0923346259    0.5221490535    0.6995664343
C       -1.7568898503   -0.8080633560    1.0045272149
C        0.6384278092    1.7159501131   -0.6212311325
N        0.3743763747   -0.7054320128   -0.7316491649
N       -0.1433712661    0.5172796716   -0.3151676716
O        0.0047154429   -0.3515393939   -2.9871035434
O       -1.3796261311    1.5587477016    1.2870673203
H        1.1165855335   -1.8974403297   -2.2271064649
H       -1.0724015825   -1.4729902862    1.5423446624
H       -2.0685382545   -1.3220530924    0.0924384013
H       -2.6193786281   -0.6081456038    1.6403258098
H        1.6061050415    1.6981990117   -0.1031889240
H        0.7929169891    1.7747678337   -1.6998205482
H        0.0691112627    2.5786498515   -0.2794543685
H        1.0750589753   -1.1270517919   -0.1225048452
16   
torsion grid (150,)
C        0.5794856394   -0.9485091084   -2.1177660665
C       -1.0817562063    0.5167918725    0.7210884318
C       -1.7551917150   -0.8017587573    1.0553678787
C        0.5983173556    1.6941767997   -0.6521590676
N        0.2792319158   -0.7213135641   -0.7872884241
N       -0.2326632738    0.5156661506   -0.3826160621
O        0.2195326569   -0.2658739885   -3.0575238585
O       -1.2842496224    1.5441151106    1.3572929201
H        1.1821002929   -1.8714499835   -2.2229583825
H       -1.0684667400   -1.4576763469    1.6026139969
H       -2.0802592216   -1.3338735835    0.1590809752
H       -2.6060803073   -0.5841102796    1.7012451850
H        1.5431985760    1.6466474194   -0.0947839517
H        0.7952857490    1.7498928741   -1.7226323523
H        0.0423617545    2.5722720895   -0.3290584324
H        0.9190030306   -1.1681120004   -0.1296273848
16   
torsion grid (165,)
C        0.6650155834   -0.9120977962   -2.1316853490
C       -1.0625315933    0.5107236487    0.7421541095
C       -1.7494408773   -0.7961361460    1.0958604479
C        0.5523767866    1.6811905051   -0.6914390228
N        0.1807745819   -0.7316362874   -0.8497538751
N       -0.3111978514    0.5188276965   -0.4340124043
O        0.4670706427   -0.1847583236   -3.0867535336
O       -1.1795250907    1.5219075429    1.4233233612
H        1.2438875381   -1.8541158946   -2.1880446974
H       -1.0663862634   -1.4469574987    1.6548745848
H       -2.0856513656   -1.3403252063    0.2114021992
H       -2.5926933539   -0.5611239445    1.7459720569
H        1.5075155641    1.5868363805   -0.1581191732
H        0.7268201894    1.7625347317   -1.7629037556
H        0.0303893228    2.5631286203   -0.3261420394
H        0.7234260710   -1.2311133242   -0.1444575037
16   
torsion grid (180,)
C        0.7593378646   -0.8851699134   -2.1170599684
C       -1.0441109005    0.5074906774    0.7547733431
C       -1.7321568314   -0.7939758987    1.1286733210
C        0.5044758327    1.6822083139   -0.7320260339
N        0.0809097343   -0.7310553413   -0.9238797439
N       -0.3766355990    0.5304766914   -0.4724287077
O        0.7625472891   -0.1182406583   -3.0627202630
O       -1.1002159109    1.5042050178    1.4639315973
H        1.2796442408   -1.8623229454   -2.1232954301
H       -1.0313158641   -1.4669419795    1.6383105920
H       -2.1337179967   -1.3167077151    0.2582819879
H       -2.5293408140   -0.5549005648    1.8329180102
H        1.4806221702    1.5456754306   -0.2484854657
H        0.6353090649    1.7992153844   -1.8051560725
H        0.0190067358    2.5578868232   -0.3070483604
H        0.4754908683   -1.3109586181   -0.1845134006
