14   
torsion grid (-165,)
C       -0.3075879679   -0.7042962840   -3.6423370626
C       -1.2194579090    0.6079894669   -0.6301163027
C       -0.0250420379   -0.3115997729   -0.8531806449
O       -0.9453347664    1.5794155650    0.3736496718
O        1.0594284281    0.5339764262   -1.2311340932
S       -0.3561372570   -1.6529384540   -2.0774481115
H       -0.1084928588   -1.4241373237   -4.4390334602
H        0.5021532622    0.0263613049   -3.6053724467
H       -1.2548297866   -0.1994110118   -3.8440581555
H       -2.0716890719    0.0216068896   -0.2835206539
H       -1.4887825081    1.0858698792   -1.5830048803
H        0.2307962019   -0.8474078110    0.0690121371
H       -0.1212210326    2.0236211387    0.1126953653
H        1.8719539627    0.0023467280   -1.2396837423
14   
torsion grid (-150,)
C       -0.1807710726   -0.7475158188   -3.6702246013
C       -1.2789425110    0.5793281312   -0.5317397760
C       -0.0636391863   -0.2734727061   -0.8722829751
O       -0.9658238654    1.5648204969    0.4463143563
O        0.9349409356    0.6241812130   -1.3475194526
S       -0.4719990141   -1.6163448405   -2.0880692968
H       -0.4174404210   -1.4719602466   -4.4531054186
H        0.8603461124   -0.4387714563   -3.7685383312
H       -0.8313608296    0.1222954659   -3.7820329136
H       -2.0618366683   -0.0531027090   -0.1100633382
H       -1.6640260936    1.0364854813   -1.4549962723
H        0.3164015397   -0.7974800266    0.0120898112
H       -0.1965283783    2.0541533749    0.1098980093
H        1.7864361113    0.1587803817   -1.3632621808
14   
torsion grid (-135,)
C       -0.8010773027   -2.8258310552   -1.4666639105
C       -0.7904437967    0.9430882975   -1.1047479446
C       -0.7579287375   -0.2623789249   -0.1660679143
O       -0.2636720164    0.5952805869   -2.3871311652
O        0.5513877242   -0.7424321148   -0.0090542291
S       -1.9589039436   -1.5797054597   -0.7969508136
H       -1.4163013134   -3.6860877618   -1.7408804161
H       -0.0829087061   -3.1254658230   -0.7024684673
H       -0.2729403073   -2.4734232150   -2.3563553711
H       -0.1343135394    1.7250142255   -0.7106529736
H       -1.8101343590    1.3393838951   -1.1817268544
H       -1.1296979011    0.0151234957    0.8229057994
H       -0.9187450932    0.0052428967   -2.8005670648
H        0.9776172278   -0.6642302764   -0.8823836711
14   
torsion grid (-120,)
C       -0.8109115223   -2.9188814512   -1.3940583452
C       -0.8134998047    1.0003691369   -1.0702768771
C       -0.7295794512   -0.2795664063   -0.2374168777
O       -0.2779346930    0.7738947673   -2.3748489592
O        0.5890713339   -0.7491515100   -0.1750547006
S       -1.9347739980   -1.5367260070   -0.9860374098
H       -1.4563697180   -3.7360597737   -1.7254805717
H       -0.2485294901   -3.2339272343   -0.5146873758
H       -0.1215886126   -2.6641079134   -2.2018340600
H       -0.1850835996    1.7704683608   -0.6137174425
H       -1.8475070654    1.3649991814   -1.1137136577
H       -1.0693003081   -0.0977592768    0.7840960418
H       -0.8830969790    0.1437696988   -2.8084963800
H        0.9810418438   -0.5737428062   -1.0512183807
14   
torsion grid (-105,)
C       -0.8370616611   -3.0036039863   -1.3061347559
C       -0.8389677554    1.0360006726   -1.0371791958
C       -0.6813927302   -0.3091541648   -0.3227867078
O       -0.2985645503    0.9567330144   -2.3569169210
O        0.6513746922   -0.7391821969   -0.3617395090
S       -1.8779147607   -1.5100434534   -1.1569000093
H       -1.4792726918   -3.7708529934   -1.7456565785
H       -0.4892578793   -3.3396292693   -0.3280402802
H        0.0190401724   -2.8337189210   -1.9598688211
H       -0.2496630057    1.7937146590   -0.5135766948
H       -1.8907726100    1.3497439106   -1.0465297590
H       -0.9815176500   -0.2214376906    0.7231901076
H       -0.8518919321    0.3145891281   -2.8397574631
H        0.9978002978   -0.4595799425   -1.2308484084
14   
torsion grid (-90,)
C       -0.8704518549   -3.0679881042   -1.2163838046
C       -0.8601977070    1.0508812179   -1.0078451294
C       -0.6263448679   -0.3438215496   -0.4168831976
O       -0.3281150862    1.1215410578   -2.3323821491
O        0.7208776269   -0.7136273587   -0.5384087099
S       -1.8000080041   -1.5003391606   -1.3183891215
H       -1.4436435386   -3.8030639962   -1.7861514609
H       -0.7812751996   -3.4047716788   -0.1810334101
H        0.1230269110   -2.9593006965   -1.6512342649
H       -0.3047179250    1.7870816154   -0.4212784021
H       -1.9263297852    1.3110551027   -0.9833708417
H       -0.8857623980   -0.3559818671    0.6437699904
H       -0.8444424799    0.4986287095   -2.8758615426
H        1.0193222443   -0.3567145252   -1.3972929522
14   
torsion grid (-75,)
C       -0.8983344347   -3.1090089787   -1.1360659498
C       -0.8785854508    1.0496610320   -0.9833272204
C       -0.5803868590   -0.3790048693   -0.5156300020
O       -0.3588503235    1.2628057457   -2.2987992788
O        0.7828441407   -0.6810149273   -0.6771370562
S       -1.7017245501   -1.5094622786   -1.4907473758
H       -1.3935386859   -3.8587103751   -1.7570410340
H       -1.0172788882   -3.3789019840   -0.0835597754
H        0.1618319961   -3.0626892763   -1.3873762751
H       -0.3489005394    1.7538946990   -0.3372500403
H       -1.9540711629    1.2617333728   -0.9316834861
H       -0.8136228677   -0.4991326128    0.5448597862
H       -0.8564519649    0.6867284436   -2.9054861464
H        1.0490075261   -0.2733192246   -1.5235011419
14   
torsion grid (-60,)
C       -0.9324173842   -3.1346449026   -1.0685304842
C       -0.8925866382    1.0340083089   -0.9623263306
C       -0.5269038809   -0.4114551077   -0.6126724302
O       -0.3957750487    1.3812646548   -2.2591128081
O        0.8548648778   -0.6340453765   -0.7795075844
S       -1.5694137135   -1.5327430942   -1.6663995577
H       -1.3778728012   -3.9143120587   -1.6900882914
H       -1.2195488758   -3.2994246202   -0.0265768071
H        0.1541954352   -3.1648744003   -1.1657384779
H       -0.3852434241    1.7043730637   -0.2645326967
H       -1.9750210646    1.1940941650   -0.8856710226
H       -0.7450201291   -0.6367931792    0.4344131920
H       -0.8968849805    0.8739072204   -2.9198597921
H        1.0995655636   -0.1957759071   -1.6161419050
14   
torsion grid (-45,)
C       -0.9786169542   -3.1505426074   -1.0174900183
C       -0.9023660298    1.0043804072   -0.9485961544
C       -0.4460447694   -0.4339006065   -0.6947501727
O       -0.4633051745    1.4600200982   -2.2333672646
O        0.9537982291   -0.5533744630   -0.8381853515
S       -1.3812817518   -1.5659314483   -1.8285874823
H       -1.3800980136   -3.9496722238   -1.6443708809
H       -1.4395703156   -3.2068681706   -0.0278649342
H        0.1042667838   -3.2661766995   -0.9359678342
H       -0.4114749799    1.6581300529   -0.2235091236
H       -1.9888132515    1.0966217096   -0.8344375497
H       -0.6585749423   -0.7474800737    0.3309322042
H       -0.9977509329    1.0204666923   -2.9149091082
H        1.1817700384   -0.1020939010   -1.6716413258
14   
torsion grid (-30,)
C       -1.0393377152   -3.1472365846   -0.9941891831
C       -0.9072353600    0.9600708627   -0.9392162330
C       -0.3325692456   -0.4440074068   -0.7481414136
O       -0.5685566332    1.4827368793   -2.2284522471
O        1.0764672724   -0.4378284736   -0.8518945611
S       -1.1388135330   -1.5997597514   -1.9584656710
H       -1.4169137787   -3.9501443446   -1.6313139374
H       -1.6564625539   -3.0879588154   -0.0940415941
H       -0.0021675541   -3.3631012459   -0.7274596879
H       -0.4336713786    1.6297335855   -0.2164995877
H       -1.9905943014    0.9619644343   -0.7729816588
H       -0.5447898315   -0.8259274010    0.2540824339
H       -1.1444127785    1.0653212649   -2.8896103705
H        1.2909953269    0.0197157631   -1.6845612848
14   
torsion grid (-15,)
C       -1.1124950347   -3.1204332357   -0.9848096374
C       -0.9115856276    0.8980178742   -0.9255105033
C       -0.2057089892   -0.4506750715   -0.7810338590
O       -0.6735540584    1.4642623556   -2.2180902176
O        1.1943868530   -0.3064145644   -0.8821529322
S       -0.9022443301   -1.6405037329   -2.0353723554
H       -1.4895433418   -3.9179085592   -1.6292966239
H       -1.8369757930   -2.9404157857   -0.1865468824
H       -0.1544419438   -3.4316462890   -0.5616062893
H       -0.4753648164    1.6002135125   -0.2096714771
H       -1.9835081932    0.7958121129   -0.7205526791
H       -0.3883177665   -0.8831603260    0.2060835048
H       -1.2352470501    0.9964805981   -2.8583201396
H        1.3665380276    0.1999498776   -1.6958649044
14   
torsion grid (0,)
C       -1.1881367672   -3.0697392510   -0.9796797015
C       -0.9170085814    0.8131093306   -0.9041965533
C       -0.0806175530   -0.4640330248   -0.8089057622
O       -0.7551169920    1.4294879258   -2.1844035122
O        1.2902637940   -0.1794218280   -0.9509683849
S       -0.6897048205   -1.6969036593   -2.0784655551
H       -1.5586115028   -3.8713598699   -1.6229289222
H       -1.9888726729   -2.7700545772   -0.2985527691
H       -0.3312174340   -3.4411005992   -0.4122448499
H       -0.5431454803    1.5388337593   -0.1761243238
H       -1.9707424550    0.5996316266   -0.6889501300
H       -0.2071366313   -0.9318291391    0.1708716948
H       -1.2439371536    0.8914177895   -2.8307397334
H        1.3759221857    0.4155402830   -1.7174564932
14   
torsion grid (15,)
C       -1.2566595756   -2.9908949426   -0.9850057767
C       -0.9203630584    0.7111251153   -0.8762654748
C        0.0387641202   -0.4804808991   -0.8295692259
O       -0.8423115570    1.3707099740   -2.1408841330
O        1.3631690557   -0.0640756273   -1.0359337330
S       -0.4885694566   -1.7589683301   -2.0951644190
H       -1.6138760484   -3.8078080587   -1.6163090622
H       -2.1086786359   -2.5748174148   -0.4402939729
H       -0.5202292260   -3.3864788673   -0.2807738713
H       -0.6090199178    1.4527027562   -0.1344247829
H       -1.9445564110    0.3891316388   -0.6500192170
H       -0.0166238304   -0.9654373875    0.1489913322
H       -1.2284188571    0.7667372712   -2.8001962420
H        1.3393113340    0.6021335385   -1.7468964176
14   
torsion grid (30,)
C       -1.3150078888   -2.8991876998   -1.0031478103
C       -0.9203720954    0.6081221932   -0.8432622058
C        0.1425350279   -0.4934832833   -0.8334661516
O       -0.9232415890    1.2881010286   -2.0985822485
O        1.4096622098    0.0369460855   -1.1152057803
S       -0.3041194658   -1.8203143084   -2.0772135335
H       -1.6406214809   -3.7434567078   -1.6150862366
H       -2.2018607021   -2.3863941037   -0.6201104138
H       -0.7180555692   -3.2794616192   -0.1697146900
H       -0.6641477711    1.3637483980   -0.0945134806
H       -1.9088263697    0.1951245438   -0.6042641803
H        0.1745872678   -0.9736437142    0.1490673682
H       -1.2157474937    0.6405123037   -2.7658335900
H        1.2771538561    0.7269656498   -1.7914120429
14   
torsion grid (45,)
C       -1.3723208224   -2.8136237045   -1.0463385392
C       -0.9081854437    0.5253846771   -0.7914929277
C        0.2302596361   -0.4970222237   -0.8210537501
O       -1.0101241528    1.1903185410   -2.0505024797
O        1.4361103118    0.1169035107   -1.1937026589
S       -0.1514720609   -1.8723050345   -2.0291697839
H       -1.5896921265   -3.7282397964   -1.6026734269
H       -2.3063295915   -2.2644747699   -0.9008809151
H       -0.9523277834   -3.0901197011   -0.0748580230
H       -0.6733320614    1.3032147016   -0.0589586731
H       -1.8558650581    0.0512595914   -0.5061760605
H        0.3681242971   -0.9532330181    0.1638352187
H       -1.2307355834    0.5055157071   -2.7090004802
H        1.2078283748    0.7900002858   -1.8617724966
14   
torsion grid (60,)
C       -1.4210892234   -2.7324773824   -1.1069945475
C       -0.8923875414    0.4573658568   -0.7308464842
C        0.3069926404   -0.4891846221   -0.7931702935
O       -1.1079138399    1.0687709138   -2.0028049077
O        1.4483445005    0.1877646432   -1.2564107161
S       -0.0138734966   -1.9220932092   -1.9513679202
H       -1.5589387187   -3.7037978642   -1.5876609606
H       -2.3497325825   -2.1636765399   -1.1969585118
H       -1.1941148638   -2.9014726374   -0.0501565373
H       -0.6639145801    1.2728845235   -0.0388014579
H       -1.7906891767   -0.0601887455   -0.3723655448
H        0.5501798104   -0.8989414262    0.1910937749
H       -1.2633896788    0.3449093621   -2.6381683613
H        1.1424646862    0.8037158939   -1.9481325280
14   
torsion grid (75,)
C       -1.4538515040   -2.6610701921   -1.1675081810
C       -0.8808555934    0.4060568249   -0.6760208672
C        0.3710654213   -0.4660740887   -0.7506246259
O       -1.2072070309    0.9234133046   -1.9662755106
O        1.4472851847    0.2511205387   -1.3071221473
S        0.1143405908   -1.9783257159   -1.8246980276
H       -1.5837526372   -3.6382670093   -1.6389031971
H       -2.3190730113   -2.0402033928   -1.4120743147
H       -1.4003632540   -2.8079892091   -0.0850302288
H       -0.6632828789    1.2747563485   -0.0486045283
H       -1.7230765221   -0.1380015397   -0.2318563449
H        0.7072002033   -0.7966424960    0.2350390361
H       -1.2977524008    0.1593512532   -2.5657071178
H        1.0812613683    0.7754541401   -2.0433589409
14   
torsion grid (90,)
C       -1.4710401819   -2.6069509051   -1.2219426199
C       -0.8687779274    0.3690850163   -0.6265738078
C        0.4237019627   -0.4388569594   -0.7094609923
O       -1.2736023332    0.8079164699   -1.9249262601
O        1.4326584667    0.2943675995   -1.3656970444
S        0.2209976980   -2.0474789664   -1.6551305025
H       -1.5959017767   -3.5756645124   -1.7123548253
H       -2.2513067760   -1.9352586073   -1.5887601236
H       -1.5898628954   -2.7518384125   -0.1448208849
H       -0.6711341125    1.2784966350   -0.0530752781
H       -1.6636868383   -0.1914254844   -0.1207445692
H        0.8412620852   -0.6715848122    0.2722474395
H       -1.3570659024    0.0196778517   -2.4904246359
H        1.0156964671    0.7130938537   -2.1410808917
14   
torsion grid (105,)
C       -1.5163971592   -2.6000187073   -1.2144355359
C       -1.0002251357    0.3336720629   -0.6314842077
C        0.3340808747   -0.3963118318   -0.7531471046
O       -1.6548245710    0.4884089986   -1.8807953984
O        1.1203659815    0.4043867884   -1.6381136706
S        0.2425732298   -2.1360552369   -1.4014112599
H       -1.6011340642   -3.5951198697   -1.6582669654
H       -2.1600943568   -1.9034766355   -1.7523154734
H       -1.8058898820   -2.6640319115   -0.1628741500
H       -0.7877869473    1.3118303061   -0.1743739772
H       -1.6799303525   -0.2059907391    0.0309983835
H        0.8081516768   -0.4399127854    0.2349237445
H       -0.9733732679    0.7843800381   -2.5090285230
H        1.8664219096   -0.1181817104   -1.9724208579
14   
torsion grid (120,)
C       -1.4787197673   -2.5832017940   -1.2709504912
C       -0.9963398196    0.3332680331   -0.5706661342
C        0.3534928022   -0.3760894807   -0.6943105258
O       -1.6518308562    0.4654468177   -1.8224488219
O        1.0918987952    0.3569885660   -1.6808484568
S        0.2999293165   -2.1750916675   -1.1273320074
H       -1.5081294437   -3.6031530341   -1.6622608448
H       -1.9865462614   -1.9059408303   -1.9566622608
H       -1.9650580152   -2.5711371287   -0.2931773170
H       -0.8011911612    1.3214123483   -0.1276376790
H       -1.6662265356   -0.2085997288    0.1001984473
H        0.8658219159   -0.3134629770    0.2724562011
H       -0.9727850628    0.7942636032   -2.4378790869
H        1.6076220291   -0.2711239606   -2.2112260188
14   
torsion grid (135,)
C       -1.4586832577   -2.5662670417   -1.3743343763
C       -0.9709535433    0.3453483912   -0.4797795842
C        0.3634782411   -0.3741999855   -0.6922071407
O       -1.7380251627    0.4260570517   -1.6708316523
O        0.9894554933    0.2998064173   -1.7878530482
S        0.2833372914   -2.2002372669   -0.9469789536
H       -1.4931703705   -3.6511750737   -1.5026542589
H       -1.7691114621   -2.0697658733   -2.2921035534
H       -2.1307713147   -2.2861425138   -0.5617234126
H       -0.7411927612    1.3514807482   -0.0977084684
H       -1.5737222412   -0.1701065512    0.2709570150
H        0.9508121549   -0.2583502526    0.2272165700
H       -1.1224655258    0.7352600214   -2.3584858648
H        1.6029503942   -0.3181293047   -2.2162582676
14   
torsion grid (150,)
C       -1.4163489330   -2.5578257604   -1.4463620490
C       -0.9556970158    0.3791965492   -0.4105513475
C        0.3508895957   -0.3755289068   -0.6797061716
O       -1.8065434280    0.4170713212   -1.5459331655
O        0.8847708777    0.2030302892   -1.8725050938
S        0.2401003885   -2.2087773787   -0.7498214213
H       -1.4855877759   -3.6482929796   -1.4784929363
H       -1.5291189199   -2.1528760590   -2.4516942808
H       -2.2059429984   -2.1642006665   -0.8061397725
H       -0.6891853650    1.3987092288   -0.0931696958
H       -1.5085211598   -0.0964467720    0.4024268966
H        1.0129471368   -0.2025289174    0.1792210744
H       -1.2420007744    0.6828005902   -2.2925165473
H        1.5421763074   -0.4107517719   -2.2375004856
14   
torsion grid (165,)
C       -0.4525526259   -0.7371502146   -3.5901478502
C       -1.1156322730    0.6692242110   -0.8474222257
C        0.0588199932   -0.3060311588   -0.8195220538
O       -1.0360988763    1.5861129080    0.2391693393
O        1.2294095839    0.4986590819   -0.9429411134
S       -0.0401482041   -1.6538919480   -2.0603143043
H       -0.2696202178   -1.4240829089   -4.4195702313
H        0.1982423712    0.1326945797   -3.7044124066
H       -1.5000575395   -0.4309201254   -3.6083193579
H       -2.0527773473    0.1214109481   -0.7323749439
H       -1.1303072747    1.2028370802   -1.8067106301
H        0.0293668159   -0.8350131450    0.1422071757
H       -0.1584780863    2.0010308939    0.1895850624
H        2.0055903395   -0.0834834612   -0.9127588398
14   
torsion grid (180,)
C       -0.3925929633   -0.6918069828   -3.6122006896
C       -1.1714164157    0.6139019019   -0.7272624532
C        0.0291022730   -0.3204832866   -0.8408667759
O       -0.9826038434    1.5648984367    0.3155147578
O        1.1509715892    0.5178533414   -1.1118108776
S       -0.1832506951   -1.6645625378   -2.0749870344
H       -0.1513606024   -1.3582935173   -4.4430751579
H        0.3054704367    0.1480817275   -3.6163685365
H       -1.4164284859   -0.3313331257   -3.7292575982
H       -2.0618280078    0.0361059134   -0.4742251054
H       -1.3381268286    1.1152439381   -1.6904888967
H        0.1599828429   -0.8535164227    0.1097149639
H       -0.1309760160    2.0007501747    0.1437708259
H        1.9488133751   -0.0354428198   -1.1219898017
