17   
torsion grid (-165,)
C        0.2588744077    0.4965241609   -1.2419209831
C       -1.0563334939   -0.0665109074   -0.7182885577
C        0.4768380911   -1.9590270143    1.8870483185
C        1.8601806047   -1.3341998723    1.6867263966
C        0.1416835962    0.0089080592    0.1818815820
C        0.8217885609   -1.2669944939    0.6081031208
O        0.0556033723    0.9667081137    1.2154927545
F        1.0426456236   -2.1112967050   -0.4798637897
H        0.8269514290   -0.1025423384   -1.9455735350
H        0.3171326932    1.5718651730   -1.3847716243
H       -1.8574802198    0.6351550545   -0.5097988009
H       -1.3637279457   -1.0463024908   -1.0698693258
H        0.4107309524   -3.0419233470    1.8562436586
H       -0.2162075678   -1.4562543530    2.5539803762
H        2.1011894183   -0.4362426293    2.2469023535
H        2.6909351125   -2.0107004383    1.5120883152
H        0.9084409888    1.4283762667    1.2594341304
17   
torsion grid (-150,)
C        0.1910785290    0.4522567085   -1.2863519054
C       -1.0735968961   -0.0542020409   -0.6092173201
C        0.4386650053   -2.0155172367    1.7801090040
C        1.8028228299   -1.3208802108    1.7885439507
C        0.2066492731    0.0454214428    0.1682171382
C        0.8996871010   -1.2276006178    0.5964651473
O        0.2204219787    1.0607039743    1.1490317570
F        1.2860911162   -2.0008162971   -0.4993133015
H        0.6828447692   -0.1915894193   -2.0070237527
H        0.2512848156    1.5178710510   -1.4884866879
H       -1.8435719977    0.6718830027   -0.3688152403
H       -1.4258738511   -1.0480848569   -0.8688676887
H        0.4286296119   -3.0962715800    1.6806354863
H       -0.3535671396   -1.5849765491    2.3851300702
H        1.9241536756   -0.4496700917    2.4236497906
H        2.6808413687   -1.9494955844    1.6774653984
H        1.1026854342    1.4665105438    1.1366425437
17   
torsion grid (-135,)
C        0.5011375418    0.8580681278   -0.9471003938
C       -0.7084880524    0.0347135088   -1.3612546541
C        0.0207859364   -2.7929720536    0.2581710321
C        0.5624238972   -2.1970194746    1.5568394274
C       -0.0824546657   -0.1754693378   -0.0128681865
C        0.6850282700   -1.4520675066    0.2621257794
O       -0.8740176709    0.2840048028    1.0639001071
F        1.9684804693   -1.4390969317   -0.2889179615
H        1.4561743474    0.6465508534   -1.4149325065
H        0.3255615323    1.8964204006   -0.6817976094
H       -1.6753975165    0.5276672919   -1.3761698845
H       -0.5649104024   -0.7442644034   -2.1044971534
H        0.5722473465   -3.6197671506   -0.1786684117
H       -1.0554935005   -2.8123170211    0.1134919633
H       -0.1507832167   -1.8383281203    2.2911789554
H        1.4776837272   -2.6269668122    1.9517677500
H       -0.2711789740    0.6387083563    1.7381497795
17   
torsion grid (-120,)
C        0.4733953040    0.7929629624   -1.0243208166
C       -0.8068525694    0.0069474796   -1.2596024187
C        0.1268098789   -2.7830103439    0.1433040228
C        0.4226043124   -2.2363390082    1.5354363620
C       -0.0538877188   -0.1508331998    0.0300638424
C        0.7200100451   -1.4174238611    0.3158277838
O       -0.7086212643    0.4277064892    1.1435944986
F        2.0771379792   -1.3202299806   -0.0075778726
H        1.3670494918    0.5045778348   -1.5673265186
H        0.3730612138    1.8529574023   -0.8122490744
H       -1.7473043029    0.5462434929   -1.2061840890
H       -0.7768354289   -0.8201707597   -1.9626527842
H        0.7809123819   -3.5637219447   -0.2330982972
H       -0.9080872574   -2.8395629380   -0.1812508382
H       -0.4083766300   -1.9243578053    2.1591065996
H        1.2781618735   -2.6560729483    2.0553476348
H       -0.0223782398    0.7681916578    1.7409999984
17   
torsion grid (-105,)
C        0.4375119879    0.7233994462   -1.0886936996
C       -0.8901251688   -0.0138558660   -1.1526556835
C        0.2381507877   -2.7603653655    0.0486083607
C        0.2967201412   -2.2802954357    1.4928474792
C       -0.0265876683   -0.1261800233    0.0709686902
C        0.7379675864   -1.3846310541    0.3760795643
O       -0.5459483873    0.5588034690    1.1967545947
F        2.1244003632   -1.2154660103    0.2740017949
H        1.2631781351    0.3558783444   -1.6895522662
H        0.4052731017    1.7984134151   -0.9425559376
H       -1.7969975361    0.5718394363   -1.0409517098
H       -0.9651102151   -0.8761804569   -1.8075768440
H        0.9804082222   -3.4898943447   -0.2612644890
H       -0.7318095083   -2.8483271858   -0.4311367986
H       -0.6278153966   -2.0222865784    1.9988550776
H        1.0784674373   -2.6985830095    2.1191175649
H        0.2091151866    0.8955957487    1.7065723347
17   
torsion grid (-90,)
C        0.3965324305    0.6545187869   -1.1438595090
C       -0.9605943955   -0.0234207407   -1.0459263564
C        0.3516367543   -2.7285898193   -0.0223663966
C        0.1854028416   -2.3245859218    1.4372942959
C        0.0002733693   -0.1005103139    0.1043148394
C        0.7410240273   -1.3565884265    0.4395492683
O       -0.3866146409    0.6758633903    1.2236626711
F        2.1206815319   -1.1321268041    0.5474855781
H        1.1480591462    0.2101062867   -1.7891018530
H        0.4221082641    1.7369587322   -1.0698943906
H       -1.8269279375    0.6103853850   -0.8864155857
H       -1.1357402118   -0.9113346460   -1.6443063460
H        1.1667769461   -3.4064629707   -0.2570902861
H       -0.5350108553   -2.8392199776   -0.6384187388
H       -0.8115966492   -2.1250094749    1.8167702358
H        0.8843721867   -2.7494483503    2.1507382412
H        0.4264162611    0.9973293943    1.6469823654
17   
torsion grid (-75,)
C        0.3522500332    0.5867860733   -1.1915622797
C       -1.0168520477   -0.0271178053   -0.9439286053
C        0.4590366138   -2.6849964836   -0.0725746596
C        0.0923226794   -2.3650205549    1.3739009296
C        0.0275832869   -0.0717808273    0.1308653315
C        0.7348498400   -1.3313720735    0.5042354429
O       -0.2403412555    0.7824433598    1.2264882382
F        2.0829946099   -1.0714608116    0.7960240322
H        1.0303961364    0.0697836809   -1.8638231926
H        0.4224309808    1.6697770744   -1.1947269472
H       -1.8415413761    0.6522621454   -0.7545383144
H       -1.2794099759   -0.9377639443   -1.4719052576
H        1.3258625835   -3.3194914599   -0.2300139613
H       -0.3340740462   -2.7994142260   -0.8044501534
H       -0.9526561013   -2.2179518046    1.6280160482
H        0.7064187370   -2.8091087716    2.1507990204
H        0.6175283709    1.0622909584    1.5866123611
17   
torsion grid (-60,)
C        0.3060412999    0.5181231088   -1.2311029507
C       -1.0603466481   -0.0278258273   -0.8481163036
C        0.5573656883   -2.6327314257   -0.1073692875
C        0.0174928524   -2.4026162146    1.3049433947
C        0.0542485815   -0.0394794261    0.1535445362
C        0.7200777114   -1.3088108568    0.5678579063
O       -0.1095964614    0.8818731940    1.2114013545
F        2.0222463857   -1.0351339481    1.0183269908
H        0.9187501822   -0.0660751054   -1.9113053982
H        0.4075292630    1.5954052449   -1.3157841710
H       -1.8460139757    0.6937678763   -0.6491273340
H       -1.3941907261   -0.9605429466   -1.2910983075
H        1.4583663528   -3.2315858119   -0.1961955437
H       -0.1429533020   -2.7310551099   -0.9308436609
H       -1.0547265237   -2.3017433831    1.4414022382
H        0.5522917004   -2.8728375413    2.1239305662
H        0.7802166885    1.1091327024    1.5289540029
17   
torsion grid (-45,)
C        0.2557775448    0.4513342643   -1.2637363595
C       -1.0950770210   -0.0226431587   -0.7566210636
C        0.6507021761   -2.5794267564   -0.1281621686
C       -0.0455645986   -2.4365674777    1.2299590445
C        0.0839421309   -0.0074912025    0.1699551747
C        0.6995018682   -1.2920060394    0.6270807973
O        0.0134722248    0.9724557518    1.1809338481
F        1.9459146393   -1.0214339873    1.2199862607
H        0.8057007374   -0.1929711859   -1.9433673970
H        0.3808316145    1.5173165175   -1.4259189682
H       -1.8453307250    0.7357269029   -0.5575704133
H       -1.4858455314   -0.9719612104   -1.1103020984
H        1.5728908813   -3.1511968717   -0.1499026056
H        0.0431333834   -2.6500113878   -1.0253984520
H       -1.1290718573   -2.3722816545    1.2517167020
H        0.4111913809   -2.9350860380    2.0788936971
H        0.9246302206    1.1441080633    1.4718720344
17   
torsion grid (-30,)
C        0.1943931640    0.3947521849   -1.2952073279
C       -1.1297017800    0.0001838353   -0.6725927917
C        0.7494256144   -2.5386842570   -0.1296732407
C       -0.0952123827   -2.4688290756    1.1515224712
C        0.1126756287    0.0207713471    0.1721852046
C        0.6706685049   -1.2823631632    0.6720764479
O        0.1365840772    1.0497023279    1.1318889876
F        1.8469641287   -1.0198017104    1.4013900219
H        0.6753759150   -0.2993208903   -1.9780201177
H        0.3459854147    1.4460838484   -1.5195929829
H       -1.8432040244    0.7923623094   -0.4697590147
H       -1.5705428710   -0.9549699841   -0.9433285555
H        1.6874451124   -3.0813297908   -0.0754733706
H        0.2368883958   -2.5917521552   -1.0857939723
H       -1.1763699475   -2.4452351626    1.0576785071
H        0.2863501778   -2.9790861922    2.0301497760
H        1.0590739410    1.1453810579    1.4219679904
17   
torsion grid (-15,)
C        0.1177073630    0.3397962044   -1.3216517311
C       -1.1738062986    0.0519210241   -0.5863747319
C        0.8684781694   -2.5101603611   -0.1083777118
C       -0.1322624178   -2.5087066925    1.0587832778
C        0.1292289979    0.0391668361    0.1655640451
C        0.6379191539   -1.2813379958    0.7077087423
O        0.2692845947    1.1111708213    1.0642447298
F        1.7121885243   -1.0194923051    1.5817388406
H        0.5062788499   -0.4059166665   -2.0085795989
H        0.3120819110    1.3700907110   -1.6039180495
H       -1.8305357557    0.8898511533   -0.3752420222
H       -1.6804829750   -0.8896751821   -0.7772841197
H        1.8142983049   -3.0192309000    0.0443627505
H        0.4734042440   -2.5553155757   -1.1188901013
H       -1.1929281987   -2.5318366466    0.8302478381
H        0.1574031887   -3.0223144250    1.9700851648
H        1.1985414131    1.1298545297    1.3470007105
17   
torsion grid (0,)
C        0.0046337509    0.2626896037   -1.3346294672
C       -1.2377357055    0.1362861109   -0.4705414480
C        1.0311817837   -2.4791334315   -0.0564743703
C       -0.1527588480   -2.5514625935    0.9155459529
C        0.1220393080    0.0413511660    0.1601114837
C        0.6174132143   -1.2840738944    0.7429364961
O        0.4322744837    1.1596752489    0.9551978485
F        1.5070552459   -1.0205961924    1.7959324431
H        0.2484987475   -0.5487746108   -2.0136051534
H        0.2658972994    1.2535896992   -1.6933899493
H       -1.7960995003    1.0416404905   -0.2538900019
H       -1.8404631699   -0.7619112640   -0.5608698132
H        1.9536087910   -2.9656827629    0.2439053947
H        0.8239409113   -2.4979805534   -1.1215210443
H       -1.1563502603   -2.6079403092    0.5068324290
H       -0.0046604591   -3.0865602014    1.8483965348
H        1.3683234765    1.0967480238    1.2054806977
17   
torsion grid (15,)
C        0.4882928259    0.7593697152   -1.0424363295
C       -0.8024342309   -0.0595471201   -1.0525674929
C        2.2900939054   -1.4975565599    0.2767334309
C        1.1536887971   -2.4144792330   -0.1512267135
C        0.0492340012   -0.0208682922    0.1759085754
C        0.8742360545   -1.2001626800    0.6844590957
O       -0.5317135995    0.7401476826    1.2126371118
F        0.5922659063   -1.4737048766    2.0184893840
H        1.3189373462    0.4012397948   -1.6441769281
H        0.3955183456    1.8388686279   -0.9797714833
H       -1.7431186833    0.4787155641   -0.9935768339
H       -0.8288208768   -0.9705596595   -1.6411663133
H        2.9528914050   -1.8597144261    1.0569587019
H        2.7595932928   -0.8599833181   -0.4650673495
H        0.8476619634   -2.4128080107   -1.1927865958
H        1.0722199430   -3.3742596137    0.3492780750
H        0.1655626456    0.9736899255    1.8468245564
17   
torsion grid (30,)
C        0.4490358108    0.6397397766   -1.1042686187
C       -0.8988913582   -0.0712919267   -0.9720069149
C        2.2873512835   -1.4523770124    0.4179090910
C        1.2437067488   -2.3298954516   -0.2518991296
C        0.0457622972   -0.0366550816    0.1856745599
C        0.8215625360   -1.2337637767    0.6843059120
O       -0.3763318484    0.8274906137    1.2213584078
F        0.3683905973   -1.6695283453    1.9210925858
H        1.2007362089    0.1871113781   -1.7453945348
H        0.4428112893    1.7247631314   -1.0929495104
H       -1.7887577323    0.5430852999   -0.8814750432
H       -1.0333499604   -1.0124422384   -1.4952676090
H        2.8688813150   -1.8976948184    1.2196118943
H        2.8125941912   -0.7130278690   -0.1786472549
H        1.0641147920   -2.2129290966   -1.3164494633
H        1.1372441069   -3.3430453401    0.1225412708
H        0.4092487638    1.0988482772    1.7243772485
17   
torsion grid (45,)
C        0.3931522473    0.5762162225   -1.1648495229
C       -0.9687202906   -0.0642099568   -0.9069443098
C        2.2735441326   -1.4307830993    0.5331548975
C        1.3312331142   -2.2820252687   -0.3062423290
C        0.0600740299   -0.0329580807    0.1785584705
C        0.7817226364   -1.2629706945    0.6468672052
O       -0.2348327875    0.8781234074    1.2172560918
F        0.2086397746   -1.7969831199    1.7941540099
H        1.0804607191    0.0761163327   -1.8412513615
H        0.4307825505    1.6605311681   -1.1883808794
H       -1.8211570008    0.5955097345   -0.7825383428
H       -1.1802766092   -1.0202620771   -1.3752035450
H        2.7801504173   -1.9179522278    1.3606184465
H        2.8353792906   -0.6424435724    0.0408847152
H        1.2704519005   -2.1036020497   -1.3752558951
H        1.2088299691   -3.3179053945   -0.0065566070
H        0.6046749474    1.1339861964    1.6342418473
17   
torsion grid (60,)
C        0.3229529085    0.5347427105   -1.2291434752
C       -1.0320370129   -0.0446046033   -0.8428905369
C        2.2516032866   -1.4267171039    0.6491050408
C        1.4287478672   -2.2458492944   -0.3398139837
C        0.0837262064   -0.0272420432    0.1556126346
C        0.7542365433   -1.2895627429    0.5947698686
O       -0.0914257145    0.9122571184    1.1960889600
F        0.0700779652   -1.8983410423    1.6419134721
H        0.9342526490   -0.0045368591   -1.9462213402
H        0.3971222178    1.6162655604   -1.2831660425
H       -1.8469447182    0.6499809383   -0.6676762358
H       -1.3156354781   -1.0046672159   -1.2623259344
H        2.6713317253   -1.9492657382    1.5029046059
H        2.8501678947   -0.6073467255    0.2608814094
H        1.4938573169   -2.0135892534   -1.3975892148
H        1.2925024954   -3.2973214371   -0.1080530605
H        0.7895728889    1.1441852517    1.5341167240
17   
torsion grid (75,)
C        0.2432474357    0.4988056277   -1.2920822717
C       -1.0867954874   -0.0224767624   -0.7727212452
C        2.2196664478   -1.4381753451    0.7636525580
C        1.5323231726   -2.2045227922   -0.3640710697
C        0.1129795314   -0.0192294275    0.1259097767
C        0.7390671610   -1.3113729293    0.5377108644
O        0.0519193779    0.9447681508    1.1570791021
F       -0.0454232787   -1.9898990935    1.4683419800
H        0.7707386880   -0.0834112549   -2.0410025919
H        0.3477105368    1.5751690199   -1.3864753640
H       -1.8596771991    0.7034166577   -0.5429365437
H       -1.4377159276   -0.9829871182   -1.1361416912
H        2.5390320486   -2.0052374496    1.6320572519
H        2.8533837985   -0.5973017020    0.4945561389
H        1.7215517056   -1.9034536777   -1.3888344872
H        1.3880640759   -3.2697637852   -0.2145372951
H        0.9640369544    1.1540594015    1.4180077791
17   
torsion grid (90,)
C        0.1579275114    0.4619458660   -1.3488714442
C       -1.1297828035   -0.0014992487   -0.6964168876
C        2.1751261288   -1.4650909460    0.8743251430
C        1.6391255396   -2.1560157881   -0.3788597163
C        0.1461144607   -0.0085883161    0.0937568028
C        0.7338613691   -1.3285465237    0.4791873885
O        0.1934179389    0.9799510656    1.1017220739
F       -0.1395838360   -2.0752397617    1.2724203974
H        0.6045555878   -0.1655419088   -2.1138336758
H        0.2826571500    1.5305131230   -1.4951406179
H       -1.8557010368    0.7550668516   -0.4176484951
H       -1.5421216016   -0.9612721677   -0.9899976761
H        2.3880463502   -2.0862404888    1.7380424373
H        2.8341580292   -0.6109444147    0.7408281691
H        1.9436917666   -1.7741164875   -1.3476356918
H        1.4953695754   -3.2305293419   -0.3260349612
H        1.1272469118    1.1845360076    1.2726696454
17   
torsion grid (105,)
C        0.0654331051    0.4191294751   -1.3922476313
C       -1.1672633353    0.0240934497   -0.6084396883
C        2.1152206067   -1.5057668373    0.9823483660
C        1.7566902919   -2.0973716011   -0.3812173078
C        0.1770181153   -0.0040641079    0.0623411969
C        0.7360440697   -1.3502887483    0.4206505534
O        0.3434167711    1.0117589561    1.0299300608
F       -0.2103954035   -2.1708221732    1.0423254267
H        0.4259673111   -0.2584519954   -2.1604663771
H        0.2087910048    1.4755891824   -1.5987566119
H       -1.8350530659    0.8160829235   -0.2861651472
H       -1.6389301715   -0.9282026206   -0.8256910548
H        2.2229251446   -2.1940097736    1.8139920129
H        2.7725988462   -0.6407672191    1.0116585877
H        2.1608849216   -1.6235945514   -1.2704313939
H        1.6367673353   -3.1746777174   -0.4386663225
H        1.2839934941    1.2497508786    1.0573482217
17   
torsion grid (120,)
C       -0.0329319308    0.3689745671   -1.4172652681
C       -1.2008587509    0.0652585925   -0.5026971926
C        2.0340638848   -1.5635614526    1.0902429473
C        1.8889416653   -2.0236420017   -0.3604620386
C        0.2018122218   -0.0139368001    0.0320865314
C        0.7414801032   -1.3846547872    0.3628065377
O        0.5278088778    1.0244219970    0.9342298412
F       -0.2556005506   -2.2831921196    0.7561254825
H        0.2241003227   -0.3596180760   -2.1809720189
H        0.1359379738    1.4074366777   -1.6878742224
H       -1.7877143613    0.9041400944   -0.1436092808
H       -1.7411284983   -0.8645290247   -0.6397102893
H        2.0514576412   -2.3337840090    1.8542312029
H        2.6350085342   -0.6864447274    1.3104226559
H        2.3774783415   -1.4467751277   -1.1407763082
H        1.8287328588   -3.0928233979   -0.5388568825
H        1.4255207081    1.3311171152    0.7305911939
17   
torsion grid (135,)
C       -0.1419706238    0.3127743556   -1.4340506854
C       -1.2255928447    0.1232749355   -0.3840895468
C        1.9354602483   -1.6284650633    1.1894112888
C        2.0271014265   -1.9267637165   -0.3054840648
C        0.2188003306   -0.0350676546   -0.0072921327
C        0.7520806181   -1.4195394616    0.3022547192
O        0.7409640514    1.0082502484    0.7935129953
F       -0.2552562492   -2.3782098168    0.4187572964
H       -0.0184480238   -0.4619750668   -2.1858057530
H        0.0586178901    1.3262224116   -1.7708004918
H       -1.7109762379    1.0147548837   -0.0007128844
H       -1.8395885775   -0.7685011431   -0.4314166161
H        1.8900236623   -2.4842405480    1.8555947190
H        2.4287277183   -0.7515480555    1.5947282621
H        2.5837594110   -1.2462587716   -0.9449724835
H        2.0595644267   -2.9707747537   -0.6015206013
H        1.5508418151    1.3344547368    0.3703988703
17   
torsion grid (150,)
C        0.4422071998    0.5814186146   -1.0213659853
C       -0.9473303053   -0.0492268046   -0.9777858638
C        0.6627095596   -1.8001929946    2.1075841370
C        1.9196441078   -1.3972500058    1.3423666660
C       -0.0605935479   -0.0941961951    0.2298750481
C        0.5765328807   -1.3934270933    0.6712568952
O       -0.4454026020    0.7465027670    1.3016280018
F        0.3784880601   -2.4199504456   -0.2494573413
H        1.2113397259    0.0728406335   -1.5958726306
H        0.5000911712    1.6664047957   -1.0191602484
H       -1.7984768891    0.6204007280   -0.9096971297
H       -1.1078161741   -0.9686760925   -1.5289729985
H        0.5362080303   -2.8580732328    2.3165306116
H        0.2506079139   -1.1217348877    2.8462390025
H        2.3831062611   -0.4380114341    1.5598707251
H        2.6094443683   -2.1887188519    1.0665304500
H        0.3084858634    1.3174327373    1.5182450502
17   
torsion grid (165,)
C        0.3862426261    0.5483607629   -1.1078182723
C       -1.0030698094   -0.0515344298   -0.8981936497
C        0.5904371177   -1.8665417781    2.0496697306
C        1.9086202022   -1.3588761327    1.4696186050
C        0.0018331766   -0.0675241397    0.2133463119
C        0.6543481368   -1.3570097135    0.6451020134
O       -0.2595922021    0.8098416292    1.2914133857
F        0.6101962742   -2.3185366970   -0.3615188114
H        1.0818631594    0.0043612802   -1.7397890433
H        0.4609571956    1.6313505910   -1.1509574598
H       -1.8321246462    0.6376201638   -0.7745926373
H       -1.2325383961   -0.9877569073   -1.3947972607
H        0.4869276037   -2.9404818511    2.1706006809
H        0.0731552690   -1.2541509591    2.7800192683
H        2.3008484669   -0.4085172267    1.8218721568
H        2.6598665708   -2.0996748642    1.2146772000
H        0.5312748786    1.3546125103    1.4291621715
17   
torsion grid (180,)
C        0.3246922779    0.5238217415   -1.1825769431
C       -1.0358665692   -0.0605989047   -0.8136409830
C        0.5280061760   -1.9134303370    1.9766616755
C        1.8911034905   -1.3426700461    1.5830265554
C        0.0712703279   -0.0311733556    0.1969642992
C        0.7383072301   -1.3123961523    0.6239592663
O       -0.0991616008    0.8840923714    1.2596774264
F        0.8254089637   -2.2152414119   -0.4339168050
H        0.9561215749   -0.0468159693   -1.8560969260
H        0.3948014801    1.6040536079   -1.2740525896
H       -1.8517869311    0.6345817492   -0.6447109048
H       -1.3088939527   -1.0187187567   -1.2429332192
H        0.4380668827   -2.9942805362    2.0210783554
H       -0.0780961409   -1.3546035738    2.6817811195
H        2.2164101069   -0.4162774636    2.0473304512
H        2.6831262075   -2.0517510603    1.3638167730
H        0.7257361001    1.3869503361    1.3514468384
