
  -OEChem-12122420533D

 71 75  0     1  0  0  0  0  0999 V2000
   -3.9052   -7.5447    5.5275 C   0  0  0  0  0  0  0  0  0  0  0  0
   -2.6785   -6.6731    5.2057 C   0  0  2  0  0  0  0  0  0  0  0  0
   -1.8320   -7.3153    4.9565 H   0  0  0  0  0  0  0  0  0  0  0  0
   -2.2371   -5.9196    6.4599 C   0  0  0  0  0  0  0  0  0  0  0  0
   -1.4888   -6.4515    7.2704 O   0  0  0  0  0  0  0  0  0  0  0  0
   -2.7708   -4.6593    6.6255 N   0  0  0  0  0  0  0  0  0  0  0  0
   -3.6139   -4.0820    5.6544 C   0  0  0  0  0  0  0  0  0  0  0  0
   -4.3737   -2.9391    5.8954 C   0  0  0  0  0  0  0  0  0  0  0  0
   -5.1145   -2.3512    4.8667 C   0  0  0  0  0  0  0  0  0  0  0  0
   -5.0608   -2.9314    3.5990 C   0  0  0  0  0  0  0  0  0  0  0  0
   -4.3452   -4.0458    3.3487 N   0  0  0  0  0  0  0  0  0  0  0  0
   -3.6501   -4.6165    4.3415 C   0  0  0  0  0  0  0  0  0  0  0  0
   -2.8852   -5.7476    4.0849 N   0  0  2  0  0  0  0  0  0  0  0  0
   -2.6073   -6.1985    2.7288 C   0  0  0  0  0  0  0  0  0  0  0  0
   -3.8652   -6.6932    1.9707 C   0  0  0  0  0  0  0  0  0  0  0  0
   -3.6073   -6.9325    0.4886 C   0  0  0  0  0  0  0  0  0  0  0  0
   -2.9856   -5.7071   -0.1600 N   0  3  0  0  0  0  0  0  0  0  0  0
   -1.6455   -5.4118    0.4914 C   0  0  0  0  0  0  0  0  0  0  0  0
   -1.8240   -5.1033    1.9705 C   0  0  0  0  0  0  0  0  0  0  0  0
   -3.9044   -4.5126   -0.1693 C   0  0  0  0  0  0  0  0  0  0  0  0
   -5.7526   -2.4290    2.4758 N   0  0  0  0  0  0  0  0  0  0  0  0
   -6.4245   -1.1860    2.4577 C   0  0  0  0  0  0  0  0  0  0  0  0
   -7.7370   -1.0958    1.9688 C   0  0  0  0  0  0  0  0  0  0  0  0
   -8.3947    0.1361    1.9232 C   0  0  0  0  0  0  0  0  0  0  0  0
   -7.7660    1.2955    2.3827 C   0  0  0  0  0  0  0  0  0  0  0  0
   -6.4552    1.1926    2.8572 C   0  0  0  0  0  0  0  0  0  0  0  0
   -5.7714   -0.0207    2.8853 C   0  0  0  0  0  0  0  0  0  0  0  0
   -5.5882    2.6724    3.4097 S   0  0  0  0  0  0  0  0  0  0  0  0
   -6.5959    3.6249    3.8684 O   0  0  0  0  0  0  0  0  0  0  0  0
   -4.4796    2.2243    4.2543 O   0  0  0  0  0  0  0  0  0  0  0  0
   -4.8938    3.3373    2.0283 N   0  0  0  0  0  0  0  0  0  0  0  0
   -5.8210    3.9180    1.0398 C   0  0  0  0  0  0  0  0  0  0  0  0
   -5.0069    4.7671    0.0655 C   0  0  0  0  0  0  0  0  0  0  0  0
   -3.9756    4.0003   -0.5534 O   0  0  0  0  0  0  0  0  0  0  0  0
   -3.0777    3.4826    0.4224 C   0  0  0  0  0  0  0  0  0  0  0  0
   -3.7988    2.5697    1.4132 C   0  0  0  0  0  0  0  0  0  0  0  0
   -2.4781   -3.9278    7.8614 C   0  0  0  0  0  0  0  0  0  0  0  0
   -4.7765   -6.9223    5.7529 H   0  0  0  0  0  0  0  0  0  0  0  0
   -4.1530   -8.1944    4.6826 H   0  0  0  0  0  0  0  0  0  0  0  0
   -3.6947   -8.1779    6.3933 H   0  0  0  0  0  0  0  0  0  0  0  0
   -4.3936   -2.4886    6.8811 H   0  0  0  0  0  0  0  0  0  0  0  0
   -5.7202   -1.4757    5.0624 H   0  0  0  0  0  0  0  0  0  0  0  0
   -1.9345   -7.0571    2.8302 H   0  0  0  0  0  0  0  0  0  0  0  0
   -4.1988   -7.6425    2.3983 H   0  0  0  0  0  0  0  0  0  0  0  0
   -4.6749   -5.9787    2.1079 H   0  0  0  0  0  0  0  0  0  0  0  0
   -2.8994   -7.7490    0.3197 H   0  0  0  0  0  0  0  0  0  0  0  0
   -4.5280   -7.1558   -0.0553 H   0  0  0  0  0  0  0  0  0  0  0  0
   -2.7976   -5.9494   -1.1373 H   0  0  0  0  0  0  0  0  0  0  0  0
   -1.0302   -6.3006    0.3262 H   0  0  0  0  0  0  0  0  0  0  0  0
   -1.1978   -4.5747   -0.0490 H   0  0  0  0  0  0  0  0  0  0  0  0
   -2.3143   -4.1386    2.0965 H   0  0  0  0  0  0  0  0  0  0  0  0
   -0.8286   -5.0125    2.4141 H   0  0  0  0  0  0  0  0  0  0  0  0
   -3.4066   -3.7007   -0.7008 H   0  0  0  0  0  0  0  0  0  0  0  0
   -4.8217   -4.7916   -0.6896 H   0  0  0  0  0  0  0  0  0  0  0  0
   -4.1224   -4.2120    0.8553 H   0  0  0  0  0  0  0  0  0  0  0  0
   -6.2245   -3.1608    1.9571 H   0  0  0  0  0  0  0  0  0  0  0  0
   -8.2549   -1.9962    1.6448 H   0  0  0  0  0  0  0  0  0  0  0  0
   -9.4158    0.1850    1.5562 H   0  0  0  0  0  0  0  0  0  0  0  0
   -8.2833    2.2486    2.4048 H   0  0  0  0  0  0  0  0  0  0  0  0
   -4.7554   -0.0564    3.2626 H   0  0  0  0  0  0  0  0  0  0  0  0
   -6.3507    3.1275    0.4866 H   0  0  0  0  0  0  0  0  0  0  0  0
   -6.5470    4.5409    1.5647 H   0  0  0  0  0  0  0  0  0  0  0  0
   -5.6488    5.1341   -0.7384 H   0  0  0  0  0  0  0  0  0  0  0  0
   -4.5725    5.6246    0.5983 H   0  0  0  0  0  0  0  0  0  0  0  0
   -2.3151    2.9193   -0.1215 H   0  0  0  0  0  0  0  0  0  0  0  0
   -2.5935    4.3046    0.9687 H   0  0  0  0  0  0  0  0  0  0  0  0
   -3.1114    2.2507    2.1986 H   0  0  0  0  0  0  0  0  0  0  0  0
   -4.1877    1.6844    0.8855 H   0  0  0  0  0  0  0  0  0  0  0  0
   -2.1252   -2.9206    7.6243 H   0  0  0  0  0  0  0  0  0  0  0  0
   -3.3678   -3.8628    8.4958 H   0  0  0  0  0  0  0  0  0  0  0  0
   -1.7029   -4.4731    8.3959 H   0  0  0  0  0  0  0  0  0  0  0  0
  1  2  1  0  0  0  0
  1 38  1  0  0  0  0
  1 39  1  0  0  0  0
  1 40  1  0  0  0  0
  2  3  1  0  0  0  0
  2  4  1  0  0  0  0
  2 13  1  0  0  0  0
  4  5  2  0  0  0  0
  4  6  1  0  0  0  0
  6  7  1  0  0  0  0
  6 37  1  0  0  0  0
  7  8  1  0  0  0  0
  7 12  2  0  0  0  0
  8  9  2  0  0  0  0
  8 41  1  0  0  0  0
  9 10  1  0  0  0  0
  9 42  1  0  0  0  0
 10 11  2  0  0  0  0
 10 21  1  0  0  0  0
 11 12  1  0  0  0  0
 12 13  1  0  0  0  0
 13 14  1  0  0  0  0
 14 15  1  0  0  0  0
 14 19  1  0  0  0  0
 14 43  1  0  0  0  0
 15 16  1  0  0  0  0
 15 44  1  0  0  0  0
 15 45  1  0  0  0  0
 16 17  1  0  0  0  0
 16 46  1  0  0  0  0
 16 47  1  0  0  0  0
 17 18  1  0  0  0  0
 17 20  1  0  0  0  0
 17 48  1  0  0  0  0
 18 19  1  0  0  0  0
 18 49  1  0  0  0  0
 18 50  1  0  0  0  0
 19 51  1  0  0  0  0
 19 52  1  0  0  0  0
 20 53  1  0  0  0  0
 20 54  1  0  0  0  0
 20 55  1  0  0  0  0
 21 22  1  0  0  0  0
 21 56  1  0  0  0  0
 22 23  2  0  0  0  0
 22 27  1  0  0  0  0
 23 24  1  0  0  0  0
 23 57  1  0  0  0  0
 24 25  2  0  0  0  0
 24 58  1  0  0  0  0
 25 26  1  0  0  0  0
 25 59  1  0  0  0  0
 26 27  2  0  0  0  0
 26 28  1  0  0  0  0
 27 60  1  0  0  0  0
 28 29  2  0  0  0  0
 28 30  2  0  0  0  0
 28 31  1  0  0  0  0
 31 32  1  0  0  0  0
 31 36  1  0  0  0  0
 32 33  1  0  0  0  0
 32 61  1  0  0  0  0
 32 62  1  0  0  0  0
 33 34  1  0  0  0  0
 33 63  1  0  0  0  0
 33 64  1  0  0  0  0
 34 35  1  0  0  0  0
 35 36  1  0  0  0  0
 35 65  1  0  0  0  0
 35 66  1  0  0  0  0
 36 67  1  0  0  0  0
 36 68  1  0  0  0  0
 37 69  1  0  0  0  0
 37 70  1  0  0  0  0
 37 71  1  0  0  0  0
M  CHG  1  17   1
M  END
$$$$
