
  -OEChem-12102412493D

 71 75  0     1  0  0  0  0  0999 V2000
   -4.0535   -7.4290    5.4869 C   0  0  0  0  0  0  0  0  0  0  0  0
   -2.7774   -6.6001    5.2553 C   0  0  2  0  0  0  0  0  0  0  0  0
   -1.9367   -7.2714    5.0717 H   0  0  0  0  0  0  0  0  0  0  0  0
   -2.4071   -5.8580    6.5387 C   0  0  0  0  0  0  0  0  0  0  0  0
   -1.7414   -6.4123    7.4045 O   0  0  0  0  0  0  0  0  0  0  0  0
   -2.9101   -4.5809    6.6630 N   0  0  0  0  0  0  0  0  0  0  0  0
   -3.6548   -3.9777    5.6287 C   0  0  0  0  0  0  0  0  0  0  0  0
   -4.3969   -2.8128    5.8115 C   0  0  0  0  0  0  0  0  0  0  0  0
   -5.0354   -2.2013    4.7289 C   0  0  0  0  0  0  0  0  0  0  0  0
   -4.8987   -2.7831    3.4681 C   0  0  0  0  0  0  0  0  0  0  0  0
   -4.2016   -3.9202    3.2734 N   0  0  0  0  0  0  0  0  0  0  0  0
   -3.6062   -4.5131    4.3164 C   0  0  0  0  0  0  0  0  0  0  0  0
   -2.8674   -5.6729    4.1196 N   0  0  2  0  0  0  0  0  0  0  0  0
   -2.5279   -6.1532    2.7870 C   0  0  0  0  0  0  0  0  0  0  0  0
   -3.7565   -6.6047    1.9578 C   0  0  0  0  0  0  0  0  0  0  0  0
   -3.4139   -6.8859    0.5006 C   0  0  0  0  0  0  0  0  0  0  0  0
   -2.6983   -5.7022   -0.1283 N   0  3  0  0  0  0  0  0  0  0  0  0
   -1.3925   -5.4484    0.6056 C   0  0  0  0  0  0  0  0  0  0  0  0
   -1.6536   -5.1040    2.0646 C   0  0  0  0  0  0  0  0  0  0  0  0
   -3.5620   -4.4712   -0.2223 C   0  0  0  0  0  0  0  0  0  0  0  0
   -5.4807   -2.2609    2.2948 N   0  0  0  0  0  0  0  0  0  0  0  0
   -6.1921   -1.0371    2.2510 C   0  0  0  0  0  0  0  0  0  0  0  0
   -5.5909    0.1598    2.6754 C   0  0  0  0  0  0  0  0  0  0  0  0
   -6.2989    1.3606    2.6196 C   0  0  0  0  0  0  0  0  0  0  0  0
   -7.6014    1.4002    2.1108 C   0  0  0  0  0  0  0  0  0  0  0  0
   -8.1725    0.2100    1.6583 C   0  0  0  0  0  0  0  0  0  0  0  0
   -7.4927   -1.0069    1.7333 C   0  0  0  0  0  0  0  0  0  0  0  0
   -9.8204    0.2334    0.9304 S   0  0  0  0  0  0  0  0  0  0  0  0
  -10.3193   -1.1423    0.9572 O   0  0  0  0  0  0  0  0  0  0  0  0
  -10.5481    1.3514    1.5240 O   0  0  0  0  0  0  0  0  0  0  0  0
   -9.5876    0.6190   -0.6929 N   0  0  0  0  0  0  0  0  0  0  0  0
   -8.9266   -0.4049   -1.5178 C   0  0  0  0  0  0  0  0  0  0  0  0
   -9.1286   -0.0348   -2.9866 C   0  0  0  0  0  0  0  0  0  0  0  0
   -8.6319    1.2697   -3.2642 O   0  0  0  0  0  0  0  0  0  0  0  0
   -9.3118    2.2468   -2.4780 C   0  0  0  0  0  0  0  0  0  0  0  0
   -9.1223    1.9872   -0.9846 C   0  0  0  0  0  0  0  0  0  0  0  0
   -2.6905   -3.8575    7.9181 C   0  0  0  0  0  0  0  0  0  0  0  0
   -4.9188   -6.7770    5.6401 H   0  0  0  0  0  0  0  0  0  0  0  0
   -4.2567   -8.0792    4.6308 H   0  0  0  0  0  0  0  0  0  0  0  0
   -3.9305   -8.0603    6.3707 H   0  0  0  0  0  0  0  0  0  0  0  0
   -4.4850   -2.3666    6.7956 H   0  0  0  0  0  0  0  0  0  0  0  0
   -5.6381   -1.3144    4.8767 H   0  0  0  0  0  0  0  0  0  0  0  0
   -1.9002   -7.0382    2.9392 H   0  0  0  0  0  0  0  0  0  0  0  0
   -4.1614   -7.5291    2.3782 H   0  0  0  0  0  0  0  0  0  0  0  0
   -4.5398   -5.8521    2.0292 H   0  0  0  0  0  0  0  0  0  0  0  0
   -2.7329   -7.7351    0.3938 H   0  0  0  0  0  0  0  0  0  0  0  0
   -4.3063   -7.0814   -0.0983 H   0  0  0  0  0  0  0  0  0  0  0  0
   -2.4567   -5.9737   -1.0859 H   0  0  0  0  0  0  0  0  0  0  0  0
   -0.8053   -6.3645    0.4965 H   0  0  0  0  0  0  0  0  0  0  0  0
   -0.8760   -4.6409    0.0818 H   0  0  0  0  0  0  0  0  0  0  0  0
   -2.1118   -4.1186    2.1427 H   0  0  0  0  0  0  0  0  0  0  0  0
   -0.6858   -5.0443    2.5703 H   0  0  0  0  0  0  0  0  0  0  0  0
   -2.9974   -3.6937   -0.7384 H   0  0  0  0  0  0  0  0  0  0  0  0
   -4.4566   -4.7243   -0.7929 H   0  0  0  0  0  0  0  0  0  0  0  0
   -3.8293   -4.1374    0.7799 H   0  0  0  0  0  0  0  0  0  0  0  0
   -5.8977   -2.9909    1.7282 H   0  0  0  0  0  0  0  0  0  0  0  0
   -4.5724    0.1443    3.0514 H   0  0  0  0  0  0  0  0  0  0  0  0
   -5.8295    2.2755    2.9696 H   0  0  0  0  0  0  0  0  0  0  0  0
   -8.1697    2.3239    2.0860 H   0  0  0  0  0  0  0  0  0  0  0  0
   -7.9973   -1.9189    1.4259 H   0  0  0  0  0  0  0  0  0  0  0  0
   -7.8488   -0.4540   -1.2944 H   0  0  0  0  0  0  0  0  0  0  0  0
   -9.3860   -1.3723   -1.3074 H   0  0  0  0  0  0  0  0  0  0  0  0
   -8.5738   -0.7240   -3.6283 H   0  0  0  0  0  0  0  0  0  0  0  0
  -10.1977   -0.0968   -3.2353 H   0  0  0  0  0  0  0  0  0  0  0  0
   -8.8855    3.2158   -2.7468 H   0  0  0  0  0  0  0  0  0  0  0  0
  -10.3841    2.2465   -2.7191 H   0  0  0  0  0  0  0  0  0  0  0  0
   -9.7193    2.6913   -0.4027 H   0  0  0  0  0  0  0  0  0  0  0  0
   -8.0600    2.1051   -0.7219 H   0  0  0  0  0  0  0  0  0  0  0  0
   -2.2860   -2.8631    7.7099 H   0  0  0  0  0  0  0  0  0  0  0  0
   -3.6242   -3.7611    8.4815 H   0  0  0  0  0  0  0  0  0  0  0  0
   -1.9782   -4.4273    8.5113 H   0  0  0  0  0  0  0  0  0  0  0  0
  1  2  1  0  0  0  0
  1 38  1  0  0  0  0
  1 39  1  0  0  0  0
  1 40  1  0  0  0  0
  2  3  1  0  0  0  0
  2  4  1  0  0  0  0
  2 13  1  0  0  0  0
  4  5  2  0  0  0  0
  4  6  1  0  0  0  0
  6  7  1  0  0  0  0
  6 37  1  0  0  0  0
  7  8  1  0  0  0  0
  7 12  2  0  0  0  0
  8  9  2  0  0  0  0
  8 41  1  0  0  0  0
  9 10  1  0  0  0  0
  9 42  1  0  0  0  0
 10 11  2  0  0  0  0
 10 21  1  0  0  0  0
 11 12  1  0  0  0  0
 12 13  1  0  0  0  0
 13 14  1  0  0  0  0
 14 15  1  0  0  0  0
 14 19  1  0  0  0  0
 14 43  1  0  0  0  0
 15 16  1  0  0  0  0
 15 44  1  0  0  0  0
 15 45  1  0  0  0  0
 16 17  1  0  0  0  0
 16 46  1  0  0  0  0
 16 47  1  0  0  0  0
 17 18  1  0  0  0  0
 17 20  1  0  0  0  0
 17 48  1  0  0  0  0
 18 19  1  0  0  0  0
 18 49  1  0  0  0  0
 18 50  1  0  0  0  0
 19 51  1  0  0  0  0
 19 52  1  0  0  0  0
 20 53  1  0  0  0  0
 20 54  1  0  0  0  0
 20 55  1  0  0  0  0
 21 22  1  0  0  0  0
 21 56  1  0  0  0  0
 22 23  2  0  0  0  0
 22 27  1  0  0  0  0
 23 24  1  0  0  0  0
 23 57  1  0  0  0  0
 24 25  2  0  0  0  0
 24 58  1  0  0  0  0
 25 26  1  0  0  0  0
 25 59  1  0  0  0  0
 26 27  2  0  0  0  0
 26 28  1  0  0  0  0
 27 60  1  0  0  0  0
 28 29  2  0  0  0  0
 28 30  2  0  0  0  0
 28 31  1  0  0  0  0
 31 32  1  0  0  0  0
 31 36  1  0  0  0  0
 32 33  1  0  0  0  0
 32 61  1  0  0  0  0
 32 62  1  0  0  0  0
 33 34  1  0  0  0  0
 33 63  1  0  0  0  0
 33 64  1  0  0  0  0
 34 35  1  0  0  0  0
 35 36  1  0  0  0  0
 35 65  1  0  0  0  0
 35 66  1  0  0  0  0
 36 67  1  0  0  0  0
 36 68  1  0  0  0  0
 37 69  1  0  0  0  0
 37 70  1  0  0  0  0
 37 71  1  0  0  0  0
M  CHG  1  17   1
M  END
$$$$
