32
-1 1 C14H15O3
C                    -2.753516120617    -5.661767086703     1.110147841922
C                    -1.430431867128    -5.874533579468     1.863313144992
H                    -1.221557869631    -6.948874089794     1.882841355722
C                    -0.250268921845    -5.238177213432     1.159415801308
C                     0.825855063851    -5.982033500892     0.819148885728
C                     2.028749938074    -5.391988126074     0.122214238819
C                     1.580553261006    -4.286995348618    -0.839900940469
C                     0.684801364900    -3.298349060232    -0.127885171689
C                    -0.224446513326    -3.785675640308     0.845605222086
C                    -1.048869210886    -2.858942672812     1.500753956774
C                    -0.996763289995    -1.492122351495     1.198220159787
C                    -0.105404363795    -1.029989131112     0.226455100681
C                     0.735036760771    -1.939874572625    -0.430182447630
O                     0.030568572462     0.295984387613    -0.149934398526
C                    -0.786956384825     1.241679150428     0.518715223754
C                    -1.520436920088    -5.464386791762     3.398530836549
O                    -0.716070758493    -6.074947186973     4.144766807467
O                    -2.387459679591    -4.591779471693     3.697420306505
H                    -3.052032303677    -4.611990749659     1.098824105793
H                    -3.555159861259    -6.215618253758     1.610548099536
H                    -2.678238519232    -6.014834629672     0.071587193603
H                     0.852855389090    -7.033452165869     1.096056540732
H                     2.731994552252    -4.974591753460     0.861469584438
H                     2.575923931210    -6.168667513752    -0.426616094861
H                     2.438985632843    -3.772832699909    -1.288415150322
H                     1.013341713491    -4.752243290188    -1.660702668880
H                    -1.721939193285    -3.209137519084     2.282167607200
H                    -1.647588673330    -0.812997994420     1.739188190143
H                     1.432081905173    -1.561825473141    -1.175203909224
H                    -0.533462995732     2.216471801693     0.094551314920
H                    -0.591050531055     1.255210926094     1.599270989212
H                    -1.854825518248     1.043060411478     0.354970580638
