71
1 1 C25H35N6O4S
C                    -4.053451183644    -7.428952862997     5.486930275406
C                    -2.777414022748    -6.600148657509     5.255333477275
H                    -1.936683898633    -7.271399053485     5.071666079484
C                    -2.407105367662    -5.858016990329     6.538729715136
O                    -1.741448803436    -6.412335960622     7.404503140163
N                    -2.910063831957    -4.580856523801     6.663031902017
C                    -3.654805125969    -3.977699709358     5.628745650867
C                    -4.396870698915    -2.812765621639     5.811503959252
C                    -5.035426859908    -2.201273800452     4.728898023694
C                    -4.898679922604    -2.783054887769     3.468053302386
N                    -4.201564217712    -3.920209627311     3.273355650148
C                    -3.606174602867    -4.513118284764     4.316430629874
N                    -2.867412619745    -5.672913590800     4.119606542516
C                    -2.527858897459    -6.153205754714     2.787047042980
C                    -3.756532210867    -6.604729331863     1.957822580827
C                    -3.413908482869    -6.885861551418     0.500648155971
N                    -2.698264590465    -5.702190357023    -0.128309211972
C                    -1.392534227341    -5.448350880742     0.605634686732
C                    -1.653601999730    -5.103954282086     2.064600974416
C                    -3.562003366159    -4.471209995021    -0.222255269873
N                    -5.480705399832    -2.260938837878     2.294788954643
C                    -6.192064565528    -1.037131906892     2.250960979316
C                    -5.590933975917     0.159818402218     2.675394652109
C                    -6.298872407829     1.360602690179     2.619621374394
C                    -7.601355395624     1.400242190841     2.110841764985
C                    -8.172499396577     0.210004928573     1.658253996589
C                    -7.492698803944    -1.006850450109     1.733321683959
S                    -9.820363670690     0.233428513295     0.930387729901
O                   -10.319262657850    -1.142263305206     0.957176315463
O                   -10.548142850685     1.351417851294     1.523964785798
N                    -9.587620320172     0.619041470740    -0.692887848858
C                    -8.926562708082    -0.404897254524    -1.517837744507
C                    -9.128614108471    -0.034779611243    -2.986561345567
O                    -8.631903787671     1.269748551219    -3.264242567692
C                    -9.311816248366     2.246819564381    -2.477951506791
C                    -9.122318291400     1.987193709930    -0.984609100194
C                    -2.690475329470    -3.857486892834     7.918095775056
H                    -4.918842521557    -6.777046238326     5.640088633170
H                    -4.256717003397    -8.079161379166     4.630839179344
H                    -3.930513030400    -8.060282109033     6.370702361478
H                    -4.484987499417    -2.366635916047     6.795609891295
H                    -5.638104276840    -1.314413568473     4.876750072854
H                    -1.900171110314    -7.038153392084     2.939210521130
H                    -4.161404271264    -7.529058453670     2.378194448104
H                    -4.539812152897    -5.852087146925     2.029226970163
H                    -2.732945785331    -7.735110036889     0.393837852996
H                    -4.306348041851    -7.081379830507    -0.098292317335
H                    -2.456683827068    -5.973721021222    -1.085931248108
H                    -0.805333905002    -6.364460287644     0.496547376553
H                    -0.875983243127    -4.640939092629     0.081842515652
H                    -2.111809862941    -4.118625659639     2.142680775511
H                    -0.685808061042    -5.044313692647     2.570311445963
H                    -2.997443890780    -3.693705487777    -0.738384034174
H                    -4.456643376277    -4.724327795297    -0.792879534137
H                    -3.829349958448    -4.137419372400     0.779904251809
H                    -5.897726749848    -2.990912648059     1.728238979185
H                    -4.572377157514     0.144279325097     3.051365466307
H                    -5.829473409715     2.275538180940     2.969583594364
H                    -8.169697440289     2.323859855055     2.086031249129
H                    -7.997327658440    -1.918862961754     1.425923568341
H                    -7.848752991340    -0.453970360278    -1.294387232651
H                    -9.385984916572    -1.372268735170    -1.307405256622
H                    -8.573752334654    -0.724045855940    -3.628271577364
H                   -10.197699015952    -0.096847023246    -3.235289356292
H                    -8.885491195679     3.215830182021    -2.746808545467
H                   -10.384069472102     2.246498888283    -2.719100239330
H                    -9.719309450490     2.691287235481    -0.402671387006
H                    -8.060026870989     2.105051206315    -0.721942355361
H                    -2.286028595257    -2.863135407354     7.709891186730
H                    -3.624187715741    -3.761067566486     8.481455944372
H                    -1.978203872847    -4.427317094943     8.511330109332
