
  -OEChem-12122420533D

 71 75  0     1  0  0  0  0  0999 V2000
   -3.6597   -7.4911    4.7829 C   0  0  0  0  0  0  0  0  0  0  0  0
   -2.5820   -6.4348    4.4805 C   0  0  2  0  0  0  0  0  0  0  0  0
   -1.7260   -6.9168    4.0053 H   0  0  0  0  0  0  0  0  0  0  0  0
   -2.0298   -5.8743    5.7901 C   0  0  0  0  0  0  0  0  0  0  0  0
   -1.1368   -6.4625    6.3854 O   0  0  0  0  0  0  0  0  0  0  0  0
   -2.6316   -4.7259    6.2639 N   0  0  0  0  0  0  0  0  0  0  0  0
   -3.6484   -4.0764    5.5395 C   0  0  0  0  0  0  0  0  0  0  0  0
   -4.4485   -3.0775    6.0891 C   0  0  0  0  0  0  0  0  0  0  0  0
   -5.3979   -2.4136    5.3004 C   0  0  0  0  0  0  0  0  0  0  0  0
   -5.4914   -2.7579    3.9547 C   0  0  0  0  0  0  0  0  0  0  0  0
   -4.7142   -3.7109    3.4056 N   0  0  0  0  0  0  0  0  0  0  0  0
   -3.8376   -4.3770    4.1618 C   0  0  0  0  0  0  0  0  0  0  0  0
   -3.0441   -5.3616    3.5914 N   0  0  2  0  0  0  0  0  0  0  0  0
   -2.9743   -5.5672    2.1433 C   0  0  0  0  0  0  0  0  0  0  0  0
   -4.3267   -5.9994    1.5124 C   0  0  0  0  0  0  0  0  0  0  0  0
   -4.3704   -5.8489   -0.0066 C   0  0  0  0  0  0  0  0  0  0  0  0
   -3.9133   -4.4699   -0.4204 N   0  3  0  0  0  0  0  0  0  0  0  0
   -2.4654   -4.2899   -0.0339 C   0  0  0  0  0  0  0  0  0  0  0  0
   -2.3208   -4.3269    1.4846 C   0  0  0  0  0  0  0  0  0  0  0  0
   -4.7836   -3.3966    0.1561 C   0  0  0  0  0  0  0  0  0  0  0  0
   -6.3823   -2.1129    3.0713 N   0  0  0  0  0  0  0  0  0  0  0  0
   -7.2518   -2.8415    2.2233 C   0  0  0  0  0  0  0  0  0  0  0  0
   -7.5885   -4.1796    2.4949 C   0  0  0  0  0  0  0  0  0  0  0  0
   -8.4164   -4.8938    1.6294 C   0  0  0  0  0  0  0  0  0  0  0  0
   -8.9145   -4.3010    0.4659 C   0  0  0  0  0  0  0  0  0  0  0  0
   -8.5711   -2.9723    0.1991 C   0  0  0  0  0  0  0  0  0  0  0  0
   -7.7669   -2.2284    1.0678 C   0  0  0  0  0  0  0  0  0  0  0  0
   -9.0455   -2.2844   -1.4017 S   0  0  0  0  0  0  0  0  0  0  0  0
  -10.1631   -3.0770   -1.9013 O   0  0  0  0  0  0  0  0  0  0  0  0
   -9.0678   -0.8285   -1.2978 O   0  0  0  0  0  0  0  0  0  0  0  0
   -7.7166   -2.6577   -2.4126 N   0  0  0  0  0  0  0  0  0  0  0  0
   -7.4388   -4.1001   -2.5238 C   0  0  0  0  0  0  0  0  0  0  0  0
   -6.2432   -4.3477   -3.4316 C   0  0  0  0  0  0  0  0  0  0  0  0
   -5.1067   -3.5901   -2.9771 O   0  0  0  0  0  0  0  0  0  0  0  0
   -5.4033   -2.1886   -3.1390 C   0  0  0  0  0  0  0  0  0  0  0  0
   -6.5661   -1.7480   -2.2537 C   0  0  0  0  0  0  0  0  0  0  0  0
   -2.2217   -4.2058    7.5711 C   0  0  0  0  0  0  0  0  0  0  0  0
   -4.5386   -7.0289    5.2432 H   0  0  0  0  0  0  0  0  0  0  0  0
   -3.9745   -7.9951    3.8643 H   0  0  0  0  0  0  0  0  0  0  0  0
   -3.2623   -8.2450    5.4672 H   0  0  0  0  0  0  0  0  0  0  0  0
   -4.3478   -2.8078    7.1341 H   0  0  0  0  0  0  0  0  0  0  0  0
   -6.0491   -1.6623    5.7355 H   0  0  0  0  0  0  0  0  0  0  0  0
   -2.2782   -6.3990    1.9985 H   0  0  0  0  0  0  0  0  0  0  0  0
   -4.5111   -7.0523    1.7429 H   0  0  0  0  0  0  0  0  0  0  0  0
   -5.1392   -5.4294    1.9564 H   0  0  0  0  0  0  0  0  0  0  0  0
   -3.7123   -6.5564   -0.5186 H   0  0  0  0  0  0  0  0  0  0  0  0
   -5.3861   -5.9836   -0.3854 H   0  0  0  0  0  0  0  0  0  0  0  0
   -4.0220   -4.3775   -1.4459 H   0  0  0  0  0  0  0  0  0  0  0  0
   -1.9087   -5.0922   -0.5255 H   0  0  0  0  0  0  0  0  0  0  0  0
   -2.1285   -3.3360   -0.4456 H   0  0  0  0  0  0  0  0  0  0  0  0
   -2.7334   -3.4157    1.9165 H   0  0  0  0  0  0  0  0  0  0  0  0
   -1.2538   -4.3278    1.7234 H   0  0  0  0  0  0  0  0  0  0  0  0
   -4.4303   -2.4369   -0.2193 H   0  0  0  0  0  0  0  0  0  0  0  0
   -5.7988   -3.5787   -0.1773 H   0  0  0  0  0  0  0  0  0  0  0  0
   -4.7444   -3.4188    1.2424 H   0  0  0  0  0  0  0  0  0  0  0  0
   -6.7434   -1.2238    3.3974 H   0  0  0  0  0  0  0  0  0  0  0  0
   -7.2182   -4.6498    3.3992 H   0  0  0  0  0  0  0  0  0  0  0  0
   -8.6927   -5.9158    1.8738 H   0  0  0  0  0  0  0  0  0  0  0  0
   -9.5698   -4.8396   -0.2100 H   0  0  0  0  0  0  0  0  0  0  0  0
   -7.5332   -1.1918    0.8428 H   0  0  0  0  0  0  0  0  0  0  0  0
   -7.2317   -4.5542   -1.5430 H   0  0  0  0  0  0  0  0  0  0  0  0
   -8.3269   -4.5868   -2.9334 H   0  0  0  0  0  0  0  0  0  0  0  0
   -5.9601   -5.4026   -3.4031 H   0  0  0  0  0  0  0  0  0  0  0  0
   -6.4664   -4.0718   -4.4688 H   0  0  0  0  0  0  0  0  0  0  0  0
   -4.4993   -1.6364   -2.8729 H   0  0  0  0  0  0  0  0  0  0  0  0
   -5.6267   -2.0004   -4.1957 H   0  0  0  0  0  0  0  0  0  0  0  0
   -6.8838   -0.7467   -2.5497 H   0  0  0  0  0  0  0  0  0  0  0  0
   -6.2363   -1.6890   -1.2115 H   0  0  0  0  0  0  0  0  0  0  0  0
   -1.9801   -3.1424    7.4907 H   0  0  0  0  0  0  0  0  0  0  0  0
   -3.0153   -4.3454    8.3123 H   0  0  0  0  0  0  0  0  0  0  0  0
   -1.3408   -4.7595    7.8891 H   0  0  0  0  0  0  0  0  0  0  0  0
  1  2  1  0  0  0  0
  1 38  1  0  0  0  0
  1 39  1  0  0  0  0
  1 40  1  0  0  0  0
  2  3  1  0  0  0  0
  2  4  1  0  0  0  0
  2 13  1  0  0  0  0
  4  5  2  0  0  0  0
  4  6  1  0  0  0  0
  6  7  1  0  0  0  0
  6 37  1  0  0  0  0
  7  8  1  0  0  0  0
  7 12  2  0  0  0  0
  8  9  2  0  0  0  0
  8 41  1  0  0  0  0
  9 10  1  0  0  0  0
  9 42  1  0  0  0  0
 10 11  2  0  0  0  0
 10 21  1  0  0  0  0
 11 12  1  0  0  0  0
 12 13  1  0  0  0  0
 13 14  1  0  0  0  0
 14 15  1  0  0  0  0
 14 19  1  0  0  0  0
 14 43  1  0  0  0  0
 15 16  1  0  0  0  0
 15 44  1  0  0  0  0
 15 45  1  0  0  0  0
 16 17  1  0  0  0  0
 16 46  1  0  0  0  0
 16 47  1  0  0  0  0
 17 18  1  0  0  0  0
 17 20  1  0  0  0  0
 17 48  1  0  0  0  0
 18 19  1  0  0  0  0
 18 49  1  0  0  0  0
 18 50  1  0  0  0  0
 19 51  1  0  0  0  0
 19 52  1  0  0  0  0
 20 53  1  0  0  0  0
 20 54  1  0  0  0  0
 20 55  1  0  0  0  0
 21 22  1  0  0  0  0
 21 56  1  0  0  0  0
 22 23  2  0  0  0  0
 22 27  1  0  0  0  0
 23 24  1  0  0  0  0
 23 57  1  0  0  0  0
 24 25  2  0  0  0  0
 24 58  1  0  0  0  0
 25 26  1  0  0  0  0
 25 59  1  0  0  0  0
 26 27  2  0  0  0  0
 26 28  1  0  0  0  0
 27 60  1  0  0  0  0
 28 29  2  0  0  0  0
 28 30  2  0  0  0  0
 28 31  1  0  0  0  0
 31 32  1  0  0  0  0
 31 36  1  0  0  0  0
 32 33  1  0  0  0  0
 32 61  1  0  0  0  0
 32 62  1  0  0  0  0
 33 34  1  0  0  0  0
 33 63  1  0  0  0  0
 33 64  1  0  0  0  0
 34 35  1  0  0  0  0
 35 36  1  0  0  0  0
 35 65  1  0  0  0  0
 35 66  1  0  0  0  0
 36 67  1  0  0  0  0
 36 68  1  0  0  0  0
 37 69  1  0  0  0  0
 37 70  1  0  0  0  0
 37 71  1  0  0  0  0
M  CHG  1  17   1
M  END
$$$$
