71
1 1 C25H35N6O4S
C                    -2.887126979143    -7.462576883507     5.526716194110
C                    -2.047530400239    -6.217750800875     5.184679556476
H                    -1.042476030500    -6.526992892693     4.892726827153
C                    -1.843238749296    -5.385145690111     6.448102942456
O                    -0.918454646215    -5.635585017601     7.211794733852
N                    -2.786047395479    -4.410605287039     6.679445232807
C                    -3.805219011965    -4.135554726538     5.742674858438
C                    -4.907795989619    -3.339607123477     6.044235969502
C                    -5.831153346271    -2.996028193571     5.055027525582
C                    -5.611828749751    -3.465879553532     3.757944902349
N                    -4.561410700671    -4.255509849636     3.448075428613
C                    -3.687335326600    -4.593424207382     4.405720886133
N                    -2.597622467018    -5.399168341142     4.092815739702
C                    -2.302311875455    -5.804211606241     2.725163467141
C                    -3.390379570716    -6.700412937844     2.084916225120
C                    -3.102742440299    -6.996871907455     0.618859857122
N                    -2.902354063963    -5.711032707126    -0.167698925114
C                    -1.724342610340    -4.935032645400     0.401357672830
C                    -1.964304901114    -4.572366256463     1.860099806340
C                    -4.157454952948    -4.887216817073    -0.257166439863
N                    -6.440786580675    -3.170516790389     2.667503471583
C                    -7.574726886168    -2.329324414104     2.685988885702
C                    -8.608995806765    -2.502359091244     3.621023267772
C                    -9.713001420009    -1.648032467798     3.612784470737
C                    -9.829965501218    -0.634774057383     2.656760412191
C                    -8.821288770594    -0.510108823185     1.698884820795
C                    -7.695466964281    -1.331959190325     1.708620321486
S                    -8.970967999870     0.723934839853     0.394723420474
O                    -9.667479315593     1.878356398941     0.954511050940
O                    -7.657249087613     0.825114184005    -0.245237102751
N                   -10.003044825038     0.050979953498    -0.752084802583
C                   -11.419910789862    -0.090145083833    -0.368855978975
C                   -12.230629967292    -0.357837879728    -1.635372395167
O                   -11.746496003288    -1.508282926082    -2.325613341952
C                   -10.388404624106    -1.332153080855    -2.711091602630
C                    -9.488430867545    -1.110322391025    -1.495649846782
C                    -2.722933593752    -3.650915324213     7.930309396749
H                    -3.917764770388    -7.183970548489     5.766365555940
H                    -2.902625881129    -8.169818008025     4.692514904958
H                    -2.452932013562    -7.973052966260     6.390272858758
H                    -5.044013141159    -2.949854846638     7.046523107561
H                    -6.658982050614    -2.339722031905     5.286907909780
H                    -1.388126170592    -6.405732019537     2.786859645455
H                    -3.427493758351    -7.661612159007     2.603079035492
H                    -4.368823878116    -6.237086015385     2.206979950065
H                    -2.180094890206    -7.570152895322     0.490556042757
H                    -3.919651387687    -7.543494503229     0.142208453585
H                    -2.650185184261    -5.979185993030    -1.123648247963
H                    -0.854030040786    -5.586066005963     0.279833555178
H                    -1.585681781943    -4.050740711512    -0.224672387327
H                    -2.753876691385    -3.826447278570     1.946506925234
H                    -1.049096497790    -4.110938207047     2.241614434459
H                    -3.946300566805    -3.995973537261    -0.849402206159
H                    -4.931115490475    -5.485628668804    -0.739701912975
H                    -4.469369447890    -4.612770963246     0.748699195582
H                    -5.931014557617    -3.158889073703     1.793572748103
H                    -8.552463837099    -3.307735150503     4.346093002239
H                   -10.494446773442    -1.779302749061     4.355754132364
H                   -10.669162673038     0.052273315519     2.665086026040
H                    -6.908436028971    -1.160310968061     0.979339706991
H                   -11.554357732505    -0.924683432408     0.335596619773
H                   -11.750022471971     0.838258861250     0.099924580317
H                   -13.271634641726    -0.564048745287    -1.376946735797
H                   -12.190651047076     0.522545879372    -2.292122134339
H                   -10.092359926166    -2.243469327585    -3.236997646163
H                   -10.294138641538    -0.476756339378    -3.395496587340
H                    -8.468997197212    -0.892787556499    -1.819282346624
H                    -9.488972422210    -2.012885856186    -0.864317325138
H                    -2.739475133597    -2.578217078318     7.718642846442
H                    -3.562937295143    -3.906846892013     8.584148851765
H                    -1.793209568492    -3.912164985394     8.431691426259
