
  -OEChem-12102412493D

 71 75  0     1  0  0  0  0  0999 V2000
   -2.7719   -7.6218    4.2349 C   0  0  0  0  0  0  0  0  0  0  0  0
   -2.3603   -6.2701    4.8492 C   0  0  2  0  0  0  0  0  0  0  0  0
   -1.3362   -6.0369    4.5530 H   0  0  0  0  0  0  0  0  0  0  0  0
   -2.2959   -6.4123    6.3664 C   0  0  0  0  0  0  0  0  0  0  0  0
   -1.2829   -6.8381    6.9076 O   0  0  0  0  0  0  0  0  0  0  0  0
   -3.4518   -6.1026    7.0461 N   0  0  0  0  0  0  0  0  0  0  0  0
   -4.5746   -5.5746    6.3788 C   0  0  0  0  0  0  0  0  0  0  0  0
   -5.8288   -5.5016    6.9777 C   0  0  0  0  0  0  0  0  0  0  0  0
   -6.8781   -4.8399    6.3339 C   0  0  0  0  0  0  0  0  0  0  0  0
   -6.6268   -4.2676    5.0877 C   0  0  0  0  0  0  0  0  0  0  0  0
   -5.4390   -4.3746    4.4648 N   0  0  0  0  0  0  0  0  0  0  0  0
   -4.4366   -5.0155    5.0760 C   0  0  0  0  0  0  0  0  0  0  0  0
   -3.2102   -5.1401    4.4425 N   0  0  2  0  0  0  0  0  0  0  0  0
   -2.9193   -4.5321    3.1449 C   0  0  0  0  0  0  0  0  0  0  0  0
   -3.7598   -5.0674    1.9659 C   0  0  0  0  0  0  0  0  0  0  0  0
   -3.2953   -4.4430    0.6540 C   0  0  0  0  0  0  0  0  0  0  0  0
   -3.3784   -2.9289    0.6968 N   0  3  0  0  0  0  0  0  0  0  0  0
   -2.5730   -2.3755    1.8687 C   0  0  0  0  0  0  0  0  0  0  0  0
   -2.9997   -3.0004    3.1889 C   0  0  0  0  0  0  0  0  0  0  0  0
   -4.7948   -2.4228    0.6519 C   0  0  0  0  0  0  0  0  0  0  0  0
   -7.6562   -3.5957    4.4057 N   0  0  0  0  0  0  0  0  0  0  0  0
   -7.5197   -2.4530    3.6209 C   0  0  0  0  0  0  0  0  0  0  0  0
   -8.5067   -2.1436    2.6647 C   0  0  0  0  0  0  0  0  0  0  0  0
   -8.3869   -1.0152    1.8535 C   0  0  0  0  0  0  0  0  0  0  0  0
   -7.2687   -0.1813    1.9474 C   0  0  0  0  0  0  0  0  0  0  0  0
   -6.3083   -0.4842    2.9185 C   0  0  0  0  0  0  0  0  0  0  0  0
   -6.4252   -1.5807    3.7698 C   0  0  0  0  0  0  0  0  0  0  0  0
   -4.8115    0.5090    3.0130 S   0  0  0  0  0  0  0  0  0  0  0  0
   -3.9072   -0.1647    3.9518 O   0  0  0  0  0  0  0  0  0  0  0  0
   -4.3761    0.7300    1.6227 O   0  0  0  0  0  0  0  0  0  0  0  0
   -5.1809    1.9954    3.6626 N   0  0  0  0  0  0  0  0  0  0  0  0
   -5.6095    1.9908    5.0789 C   0  0  0  0  0  0  0  0  0  0  0  0
   -5.5307    3.4261    5.5982 C   0  0  0  0  0  0  0  0  0  0  0  0
   -6.3099    4.3106    4.8009 O   0  0  0  0  0  0  0  0  0  0  0  0
   -5.8519    4.3204    3.4537 C   0  0  0  0  0  0  0  0  0  0  0  0
   -5.9605    2.9314    2.8253 C   0  0  0  0  0  0  0  0  0  0  0  0
   -3.5043   -6.3368    8.4909 C   0  0  0  0  0  0  0  0  0  0  0  0
   -3.8194   -7.8478    4.4570 H   0  0  0  0  0  0  0  0  0  0  0  0
   -2.6389   -7.6172    3.1496 H   0  0  0  0  0  0  0  0  0  0  0  0
   -2.1463   -8.4188    4.6452 H   0  0  0  0  0  0  0  0  0  0  0  0
   -5.9913   -5.9217    7.9635 H   0  0  0  0  0  0  0  0  0  0  0  0
   -7.8472   -4.7397    6.8116 H   0  0  0  0  0  0  0  0  0  0  0  0
   -1.8749   -4.7974    2.9409 H   0  0  0  0  0  0  0  0  0  0  0  0
   -3.6427   -6.1490    1.8666 H   0  0  0  0  0  0  0  0  0  0  0  0
   -4.8180   -4.8755    2.1489 H   0  0  0  0  0  0  0  0  0  0  0  0
   -2.2471   -4.6834    0.4520 H   0  0  0  0  0  0  0  0  0  0  0  0
   -3.8956   -4.7750   -0.1958 H   0  0  0  0  0  0  0  0  0  0  0  0
   -2.9245   -2.5795   -0.1517 H   0  0  0  0  0  0  0  0  0  0  0  0
   -1.5282   -2.6032    1.6359 H   0  0  0  0  0  0  0  0  0  0  0  0
   -2.7089   -1.2936    1.8720 H   0  0  0  0  0  0  0  0  0  0  0  0
   -4.0051   -2.6846    3.4508 H   0  0  0  0  0  0  0  0  0  0  0  0
   -2.3389   -2.6049    3.9642 H   0  0  0  0  0  0  0  0  0  0  0  0
   -4.7676   -1.3346    0.6125 H   0  0  0  0  0  0  0  0  0  0  0  0
   -5.2751   -2.8315   -0.2382 H   0  0  0  0  0  0  0  0  0  0  0  0
   -5.3228   -2.7484    1.5440 H   0  0  0  0  0  0  0  0  0  0  0  0
   -8.5993   -3.8900    4.6223 H   0  0  0  0  0  0  0  0  0  0  0  0
   -9.3607   -2.8061    2.5468 H   0  0  0  0  0  0  0  0  0  0  0  0
   -9.1571   -0.8021    1.1178 H   0  0  0  0  0  0  0  0  0  0  0  0
   -7.1343    0.6512    1.2660 H   0  0  0  0  0  0  0  0  0  0  0  0
   -5.6711   -1.7629    4.5242 H   0  0  0  0  0  0  0  0  0  0  0  0
   -6.6385    1.6146    5.1692 H   0  0  0  0  0  0  0  0  0  0  0  0
   -4.9352    1.3490    5.6480 H   0  0  0  0  0  0  0  0  0  0  0  0
   -5.9361    3.4766    6.6111 H   0  0  0  0  0  0  0  0  0  0  0  0
   -4.4812    3.7528    5.6150 H   0  0  0  0  0  0  0  0  0  0  0  0
   -6.4871    5.0238    2.9108 H   0  0  0  0  0  0  0  0  0  0  0  0
   -4.8096    4.6666    3.4062 H   0  0  0  0  0  0  0  0  0  0  0  0
   -5.5404    2.9361    1.8182 H   0  0  0  0  0  0  0  0  0  0  0  0
   -7.0169    2.6310    2.7868 H   0  0  0  0  0  0  0  0  0  0  0  0
   -3.8495   -5.4347    9.0035 H   0  0  0  0  0  0  0  0  0  0  0  0
   -4.1740   -7.1701    8.7273 H   0  0  0  0  0  0  0  0  0  0  0  0
   -2.4990   -6.5873    8.8238 H   0  0  0  0  0  0  0  0  0  0  0  0
  1  2  1  0  0  0  0
  1 38  1  0  0  0  0
  1 39  1  0  0  0  0
  1 40  1  0  0  0  0
  2  3  1  0  0  0  0
  2  4  1  0  0  0  0
  2 13  1  0  0  0  0
  4  5  2  0  0  0  0
  4  6  1  0  0  0  0
  6  7  1  0  0  0  0
  6 37  1  0  0  0  0
  7  8  1  0  0  0  0
  7 12  2  0  0  0  0
  8  9  2  0  0  0  0
  8 41  1  0  0  0  0
  9 10  1  0  0  0  0
  9 42  1  0  0  0  0
 10 11  2  0  0  0  0
 10 21  1  0  0  0  0
 11 12  1  0  0  0  0
 12 13  1  0  0  0  0
 13 14  1  0  0  0  0
 14 15  1  0  0  0  0
 14 19  1  0  0  0  0
 14 43  1  0  0  0  0
 15 16  1  0  0  0  0
 15 44  1  0  0  0  0
 15 45  1  0  0  0  0
 16 17  1  0  0  0  0
 16 46  1  0  0  0  0
 16 47  1  0  0  0  0
 17 18  1  0  0  0  0
 17 20  1  0  0  0  0
 17 48  1  0  0  0  0
 18 19  1  0  0  0  0
 18 49  1  0  0  0  0
 18 50  1  0  0  0  0
 19 51  1  0  0  0  0
 19 52  1  0  0  0  0
 20 53  1  0  0  0  0
 20 54  1  0  0  0  0
 20 55  1  0  0  0  0
 21 22  1  0  0  0  0
 21 56  1  0  0  0  0
 22 23  2  0  0  0  0
 22 27  1  0  0  0  0
 23 24  1  0  0  0  0
 23 57  1  0  0  0  0
 24 25  2  0  0  0  0
 24 58  1  0  0  0  0
 25 26  1  0  0  0  0
 25 59  1  0  0  0  0
 26 27  2  0  0  0  0
 26 28  1  0  0  0  0
 27 60  1  0  0  0  0
 28 29  2  0  0  0  0
 28 30  2  0  0  0  0
 28 31  1  0  0  0  0
 31 32  1  0  0  0  0
 31 36  1  0  0  0  0
 32 33  1  0  0  0  0
 32 61  1  0  0  0  0
 32 62  1  0  0  0  0
 33 34  1  0  0  0  0
 33 63  1  0  0  0  0
 33 64  1  0  0  0  0
 34 35  1  0  0  0  0
 35 36  1  0  0  0  0
 35 65  1  0  0  0  0
 35 66  1  0  0  0  0
 36 67  1  0  0  0  0
 36 68  1  0  0  0  0
 37 69  1  0  0  0  0
 37 70  1  0  0  0  0
 37 71  1  0  0  0  0
M  CHG  1  17   1
M  END
$$$$
