71
1 1 C25H35N6O4S
C                    -2.771894408102    -7.621837808117     4.234936439830
C                    -2.360281582560    -6.270116579528     4.849161381933
H                    -1.336208224029    -6.036898578219     4.553004456090
C                    -2.295851314935    -6.412338865805     6.366443225780
O                    -1.282878348000    -6.838144451683     6.907643580806
N                    -3.451803212182    -6.102629817432     7.046136771155
C                    -4.574631441847    -5.574550369011     6.378834074213
C                    -5.828763460277    -5.501607560980     6.977704436830
C                    -6.878084731379    -4.839930324710     6.333892635950
C                    -6.626776817707    -4.267615027043     5.087724104820
N                    -5.439030884706    -4.374600223086     4.464759261322
C                    -4.436593783117    -5.015462183814     5.076048952689
N                    -3.210175553100    -5.140093720008     4.442540999409
C                    -2.919346198203    -4.532079233400     3.144945164242
C                    -3.759797848103    -5.067388914719     1.965913869715
C                    -3.295269111280    -4.442956588731     0.654001870086
N                    -3.378435538353    -2.928938852798     0.696786471998
C                    -2.573004195950    -2.375450738351     1.868667868019
C                    -2.999743837815    -3.000395969350     3.188926177617
C                    -4.794766399181    -2.422823449557     0.651892686143
N                    -7.656177392634    -3.595714118814     4.405738147893
C                    -7.519671664886    -2.452959901201     3.620942652916
C                    -8.506732654768    -2.143588462597     2.664714231423
C                    -8.386931940289    -1.015212556018     1.853510756301
C                    -7.268708393748    -0.181276606904     1.947351756651
C                    -6.308323539270    -0.484187723117     2.918513606655
C                    -6.425197713271    -1.580705738127     3.769762297314
S                    -4.811494632746     0.508959804833     3.013028366013
O                    -3.907213098518    -0.164717710046     3.951801072862
O                    -4.376135106878     0.730000359002     1.622683963930
N                    -5.180896357470     1.995360104939     3.662603970363
C                    -5.609523669697     1.990761263931     5.078909753483
C                    -5.530700020072     3.426081670132     5.598191165102
O                    -6.309904868946     4.310603684979     4.800857556966
C                    -5.851906184194     4.320383377259     3.453703778593
C                    -5.960520785662     2.931445253030     2.825269470573
C                    -3.504272688401    -6.336800903940     8.490888808616
H                    -3.819352223990    -7.847759715132     4.457040904782
H                    -2.638943026092    -7.617213503101     3.149570130729
H                    -2.146293584748    -8.418831901446     4.645197773235
H                    -5.991309564637    -5.921715458788     7.963451082815
H                    -7.847200311319    -4.739665991457     6.811635276980
H                    -1.874850139536    -4.797386133297     2.940918138946
H                    -3.642749633010    -6.149030361310     1.866646707414
H                    -4.817987774707    -4.875460298655     2.148905344163
H                    -2.247049941679    -4.683369272812     0.452014314928
H                    -3.895649576320    -4.775028216226    -0.195846189040
H                    -2.924549518339    -2.579536216561    -0.151656378212
H                    -1.528244226025    -2.603164111312     1.635891629138
H                    -2.708882420070    -1.293569680320     1.872028370853
H                    -4.005082603262    -2.684598266202     3.450798288784
H                    -2.338891139016    -2.604875311658     3.964232773776
H                    -4.767634398777    -1.334646140529     0.612454431575
H                    -5.275124069942    -2.831506289677    -0.238238030334
H                    -5.322788781133    -2.748370168583     1.543953952213
H                    -8.599268418360    -3.890045452073     4.622294972973
H                    -9.360738263442    -2.806135920207     2.546768986873
H                    -9.157147206084    -0.802105664720     1.117778011080
H                    -7.134327645882     0.651150922572     1.265970464064
H                    -5.671078039101    -1.762925312361     4.524172558565
H                    -6.638519730980     1.614627955287     5.169154661305
H                    -4.935215925927     1.349008158197     5.648017528156
H                    -5.936108671452     3.476628338621     6.611072690215
H                    -4.481158346662     3.752809756113     5.614960081810
H                    -6.487062386900     5.023803852900     2.910807696363
H                    -4.809591880833     4.666633075131     3.406199032381
H                    -5.540378872342     2.936056058735     1.818214885063
H                    -7.016942000941     2.631041685363     2.786755132956
H                    -3.849532221627    -5.434745200187     9.003534311554
H                    -4.174010722368    -7.170086256133     8.727280830710
H                    -2.499035366226    -6.587296387716     8.823795827007
