19   
torsion grid (-165,)
C       -0.2298237811    0.0981598087    1.4728423931
C        1.6767568121   -1.2201999035    2.1013079192
C       -1.0111608994   -0.7658120716    2.2452705501
C        0.8038143758   -2.0258129031    2.8406166655
C        1.1498975374   -0.1309635327    1.3957241274
C        3.8187146107    0.2600203249    0.1263959418
N       -0.5157471480   -1.8119405126    2.9225913812
N        4.6920215045    1.1129691554   -0.6808806942
O        1.5021356910    1.5875816148   -0.7964688247
P        2.1700863299    1.0381082405    0.4301373188
H       -0.6870620566    0.9169748687    0.9244092142
H        2.7362080477   -1.4590683727    2.0856224481
H       -2.0860275214   -0.6104139685    2.3225352884
H        1.1865512149   -2.8835464226    3.3917078871
H        4.3084749955    0.0319041615    1.0791363652
H        3.6607876304   -0.6883753127   -0.3983843141
H        4.2065057958    1.3889960637   -1.5341373291
H        4.9195677913    1.9715147489   -0.1817234756
H        2.4981247177    2.0215116246    1.4064011133
19   
torsion grid (-150,)
C       -0.2186197532    0.0405452058    1.3898333755
C        1.6950526900   -1.1347647647    2.2438249503
C       -1.0165766621   -0.8422024079    2.1249743632
C        0.8063534051   -1.9647745830    2.9342006254
C        1.1718197248   -0.1086930244    1.4459778470
C        3.7619418100    0.2214761460    0.0166889812
N       -0.5261403486   -1.8304079321    2.8865210784
N        4.6496724781    1.0882597764   -0.7583483381
O        1.4993673386    1.8044511684   -0.5748530339
P        2.2104645132    1.0843660516    0.5333645999
H       -0.6635388323    0.8161758647    0.7729533062
H        2.7644251134   -1.3036045977    2.3373375514
H       -2.1011588714   -0.7495430826    2.1004076176
H        1.1851039623   -2.7753014602    3.5550035763
H        4.2939188999   -0.1578395605    0.8956648160
H        3.4806773673   -0.6432404350   -0.5937169380
H        4.1361003322    1.4919893670   -1.5413159730
H        4.9812801774    1.8669450463   -0.1911294575
H        2.6896823037    1.9277708335    1.5757150282
19   
torsion grid (-135,)
C       -0.1884629291   -0.0134568521    1.3181967039
C        1.7060572550   -1.0424285237    2.3825933402
C       -0.9959436836   -0.9263979163    2.0056222366
C        0.8090595295   -1.9070818763    3.0161217689
C        1.1960363748   -0.0749048850    1.5067644112
C        3.6803158871    0.1986586895   -0.0827230542
N       -0.5192076188   -1.8603095140    2.8400426680
N        4.6004288813    1.0574978451   -0.8272441595
O        1.5151230777    1.9909382988   -0.3545636319
P        2.2497625438    1.1289448909    0.6299212427
H       -0.6172944310    0.7248410475    0.6465422933
H        2.7710594534   -1.1358501820    2.5808400381
H       -2.0772315545   -0.9035787516    1.8799224428
H        1.1757604466   -2.6722858320    3.6985709172
H        4.2222080802   -0.3207685358    0.7153375954
H        3.2791400639   -0.5676651232   -0.7542009199
H        4.0859478733    1.5793409161   -1.5361063031
H        5.0353048851    1.7438015046   -0.2125305316
H        2.8717615136    1.8323124112    1.6999969177
19   
torsion grid (-120,)
C       -0.1421563793   -0.0643169375    1.2501501383
C        1.7025451389   -0.9475852314    2.5162105952
C       -0.9534943629   -1.0105806610    1.8862886833
C        0.8041495772   -1.8516851219    3.0894463928
C        1.2188811426   -0.0348420502    1.5698192882
C        3.5897105861    0.1869896864   -0.1635279491
N       -0.5017050698   -1.8934530952    2.7876113698
N        4.5350427545    1.0236083701   -0.9003497838
O        1.5790346718    2.1583596321   -0.1395548709
P        2.2988134801    1.1674992318    0.7277608672
H       -0.5521080800    0.6379550977    0.5297697233
H        2.7481262904   -0.9645046593    2.8160705633
H       -2.0177450934   -1.0584270100    1.6613552681
H        1.1494477776   -2.5741482733    3.8273942650
H        4.1281824836   -0.4532115920    0.5443129409
H        3.0698507282   -0.4734858687   -0.8655977480
H        4.0265958024    1.6492110255   -1.5244986023
H        5.0733373773    1.6112388390   -0.2656493766
H        3.0433168230    1.7229862295    1.8060922111
19   
torsion grid (-105,)
C       -0.0726920903   -0.1221577182    1.1823618011
C        1.6821908861   -0.8645162664    2.6488632271
C       -0.8936574613   -1.0895207162    1.7715580464
C        0.7788343277   -1.7966195515    3.1677672513
C        1.2477866128   -0.0076592672    1.6299697205
C        3.4997634313    0.1905095236   -0.2391874055
N       -0.4872325423   -1.9180326817    2.7438747433
N        4.4503641407    1.0107670809   -0.9867938665
O        1.6785448749    2.3011832968    0.0873680146
P        2.3613146161    1.1874912109    0.8260683450
H       -0.4516111092    0.5387359269    0.4078099483
H        2.6936336773   -0.8140910619    3.0465734607
H       -1.9272719264   -1.2012099202    1.4479948077
H        1.0861247484   -2.4741259364    3.9629681550
H        4.0345053255   -0.5458644586    0.3714116246
H        2.8739468446   -0.3677498809   -0.9438241623
H        3.9481565098    1.7258458530   -1.5122071382
H        5.0865471068    1.4974243821   -0.3572849954
H        3.2105776759    1.5811977968    1.8978123982
19   
torsion grid (-90,)
C        0.0168538774   -0.1903293429    1.1136160375
C        1.6450304849   -0.7907861348    2.7761804695
C       -0.8216237948   -1.1622945263    1.6675736912
C        0.7293367198   -1.7350043518    3.2516540110
C        1.2825233361    0.0020103752    1.6808749617
C        3.4125742371    0.2060971398   -0.3137304524
N       -0.4829482825   -1.9284623921    2.7147836021
N        4.3479387431    1.0256679116   -1.0807525960
O        1.8207448758    2.4153173890    0.3239064006
P        2.4382296001    1.1837588490    0.9195376808
H       -0.3157941364    0.4183621886    0.2772793299
H        2.6104239663   -0.6808114087    3.2653109395
H       -1.8132262816   -1.3317788074    1.2510761849
H        0.9818146167   -2.3615379439    4.1057699939
H        3.9463252901   -0.6075271533    0.1901830138
H        2.6926318737   -0.2557771683   -0.9983308857
H        3.8551358794    1.8237696911   -1.4810497850
H        5.0800609220    1.4011320739   -0.4801062857
H        3.3737937211    1.3998012230    1.9693276641
19   
torsion grid (-75,)
C        0.1203305509   -0.2833502130    1.0487411127
C        1.5976552241   -0.7182864685    2.8918879327
C       -0.7411955503   -1.2425701128    1.5872216616
C        0.6647236707   -1.6574273319    3.3453259467
C        1.3220987322   -0.0107621938    1.7162295204
C        3.3165725050    0.2433761306   -0.4003679861
N       -0.4845546672   -1.9262443970    2.7124906340
N        4.2580791562    1.0647830799   -1.1578085212
O        1.9775205233    2.4946206367    0.5725449764
P        2.5159239198    1.1585547581    0.9948795824
H       -0.1533284799    0.2528497877    0.1439114188
H        2.5098558945   -0.5462938178    3.4584356988
H       -1.6827716186   -1.4726768976    1.0913557818
H        0.8512040077   -2.2166507712    4.2609099299
H        3.8155176235   -0.6556422761   -0.0216529703
H        2.5145530425   -0.0914354910   -1.0677567414
H        3.8067633031    1.9375413315   -1.4313012224
H        5.0635784114    1.3151095866   -0.5866854464
H        3.5272993993    1.1861122714    1.9947426674
19   
torsion grid (-60,)
C        0.2311654929   -0.4011085879    0.9913317597
C        1.5390296236   -0.6526236229    2.9885000412
C       -0.6698651055   -1.3209435362    1.5333638348
C        0.5740477311   -1.5599456698    3.4394686588
C        1.3666914380   -0.0521449407    1.7358912526
C        3.2339120380    0.2971485656   -0.4914372288
N       -0.5124542850   -1.8985043680    2.7336399676
N        4.1713303481    1.1437566634   -1.2267005066
O        2.1680028053    2.5148924609    0.8296026665
P        2.6055636075    1.0963142290    1.0542968168
H        0.0323445763    0.0421913093    0.0192020967
H        2.3978171955   -0.4220821248    3.6142989058
H       -1.5601687630   -1.6082188131    0.9763673877
H        0.6818179617   -2.0351143959    4.4132991669
H        3.6978093307   -0.6663381458   -0.2531912279
H        2.3681328534    0.0866908384   -1.1289558571
H        3.7657222798    2.0712372888   -1.3524113136
H        5.0349114070    1.2693298373   -0.7011892492
H        3.6740151130    0.9270706241    1.9777268038
19   
torsion grid (-45,)
C        0.3293606992   -0.5462714036    0.9503400995
C        1.4790984254   -0.5790212519    3.0558739765
C       -0.6063351391   -1.4193178361    1.5124844907
C        0.4871688721   -1.4474700720    3.5219535847
C        1.4020546952   -0.1085197690    1.7388876200
C        3.1455442360    0.3815482935   -0.5882440069
N       -0.5400105260   -1.8702898440    2.7729970066
N        4.1299255159    1.2328694259   -1.2557373735
O        2.3497806588    2.4821805709    1.0756962364
P        2.6789701618    1.0172128327    1.0835925260
H        0.2020645419   -0.2139108895   -0.0760378304
H        2.2870380718   -0.2766706261    3.7178165505
H       -1.4482295865   -1.7736420079    0.9198882103
H        0.5222749663   -1.8211542001    4.5440694415
H        3.5215345719   -0.6444883634   -0.5108684340
H        2.2386060103    0.3475742370   -1.2010297664
H        3.8079901943    2.2006741550   -1.2398332200
H        5.0207473657    1.2114811573   -0.7619381131
H        3.7922419136    0.6588232029    1.8931929777
19   
torsion grid (-30,)
C        0.4288709229   -0.6919832935    0.9253693696
C        1.4180333907   -0.4991195486    3.1019167645
C       -0.5392984803   -1.5208252805    1.5019383163
C        0.4032331641   -1.3335843290    3.5778614010
C        1.4371539057   -0.1635135662    1.7414412129
C        3.0485862185    0.4857433541   -0.6610535507
N       -0.5628206431   -1.8446229970    2.8014195770
N        4.0993825092    1.3015180900   -1.2711084193
O        2.5370290351    2.4121111030    1.3130392285
P        2.7456188691    0.9400404815    1.1034786043
H        0.3766822072   -0.4717424228   -0.1367731189
H        2.1702215413   -0.1171558219    3.7879035122
H       -1.3320313018   -1.9443107412    0.8871890560
H        0.3663122150   -1.6053746877    4.6315524239
H        3.3041959781   -0.5768574714   -0.7375174624
H        2.1203794601    0.6399856165   -1.2210093806
H        3.8900328342    2.2893888749   -1.1278914559
H        4.9986757446    1.1234868439   -0.8267245927
H        3.8895680776    0.4084234077    1.7620724902
19   
torsion grid (-15,)
C        0.5368515441   -0.8365206325    0.9143577246
C        1.3571243222   -0.4215226616    3.1303755625
C       -0.4734059441   -1.6112062301    1.4959670292
C        0.3102312547   -1.2134210367    3.6077572489
C        1.4841409799   -0.2292440042    1.7475904033
C        2.9687396567    0.5826886060   -0.7002620629
N       -0.5948033125   -1.8062682271    2.8147404513
N        4.0378192559    1.3905821266   -1.2897604715
O        2.7603398181    2.2823220473    1.5311468344
P        2.8295790391    0.8393594071    1.1229804829
H        0.5656062595   -0.7256083079   -0.1654348844
H        2.0479464978    0.0437169799    3.8289240206
H       -1.2197945954   -2.0954460012    0.8680595680
H        0.1919386216   -1.3786172006    4.6774034581
H        3.1362899818   -0.4773302328   -0.9206098795
H        2.0191311918    0.8704462528   -1.1638610794
H        3.9162339183    2.3662321396   -1.0185612823
H        4.9474560375    1.0982253845   -0.9360903741
H        3.9784011214    0.1532192026    1.6083812261
19   
torsion grid (0,)
C        0.1754133247   -0.5114554953    1.0341769115
C        1.6514811550   -0.6832619163    2.9159739106
C       -0.6767902366   -1.4049138822    1.6932823059
C        0.7360714538   -1.5732057689    3.4830951129
C        1.3795289506   -0.1469563271    1.6495766373
C        1.8554199169    1.6844747054   -0.6318696392
N       -0.4122604786   -1.9367761271    2.8926378354
N        0.7941805003    2.6795363153   -0.4753828860
O        2.9414549372    2.1558649306    1.9286500901
P        2.5596079166    1.0729027332    0.9620072273
H       -0.1086867663   -0.1377852282    0.0547396069
H        2.5481583702   -0.4012904503    3.4610791371
H       -1.6175507455   -1.7023560187    1.2323528095
H        0.9316186546   -2.0105939091    4.4607482738
H        2.6900031334    2.1432052110   -1.1733928103
H        1.5084911207    0.8463706318   -1.2456409254
H       -0.0080295172    2.2846117453    0.0123087433
H        1.1339008546    3.4469665637    0.1035231228
H        3.6312113642    0.2346263278    0.5438901751
19   
torsion grid (15,)
C        0.2534218379   -0.6293862211    0.9447370397
C        1.5952651354   -0.5734392368    2.9332167026
C       -0.6286665264   -1.4710320172    1.6314249047
C        0.6558412148   -1.4235651934    3.5234128538
C        1.4048656999   -0.1777479019    1.6027003634
C        1.8204439557    1.7400769573   -0.6037347021
N       -0.4407368429   -1.8722845798    2.8950568221
N        0.7582484258    2.6950831130   -0.2905328754
O        3.1799060807    1.9548625370    1.8689431382
P        2.6232113509    0.9788035658    0.8741216966
H        0.0321555078   -0.3569647277   -0.0833696248
H        2.4462175244   -0.2097930171    3.5021483793
H       -1.5302707446   -1.8344548648    1.1405430212
H        0.7871952155   -1.7540313423    4.5524548924
H        2.6176626854    2.2611429048   -1.1452147907
H        1.4457814544    0.9601125975   -1.2754906009
H       -0.0048278956    2.2401669426    0.2079382570
H        1.1215648657    3.4199868992    0.3270158363
H        3.5759449639    0.0924276261    0.2963843252
19   
torsion grid (30,)
C        0.3359915570   -0.7738573760    0.8705122591
C        1.5306580825   -0.4554284665    2.9289000492
C       -0.5701502907   -1.5649941326    1.5840671147
C        0.5717121541   -1.2665428309    3.5443420631
C        1.4228947294   -0.2132542243    1.5543705320
C        1.7754348892    1.7911012266   -0.5672357602
N       -0.4643222559   -1.8171824255    2.8957526995
N        0.7676850612    2.7404472358   -0.0993895013
O        3.3644827775    1.7648392649    1.7785860879
P        2.6603802460    0.8914855490    0.7818869069
H        0.1835194030   -0.6192280167   -0.1942837128
H        2.3356570204   -0.0057822633    3.5031225828
H       -1.4231341733   -2.0125191379    1.0762007983
H        0.6364811058   -1.4780083364    4.6104308786
H        2.5439395356    2.3324495189   -1.1300133188
H        1.3241674432    1.0740913114   -1.2618696210
H        0.0317211977    2.2611508414    0.4170202603
H        1.1940631968    3.4080351168    0.5418347888
H        3.4920422291   -0.0168388140    0.0675205313
19   
torsion grid (45,)
C        0.4262987565   -0.9354245028    0.8131944052
C        1.4471896076   -0.3352467362    2.9037416220
C       -0.4971149347   -1.6879573065    1.5447971911
C        0.4763386296   -1.1192669048    3.5373311187
C        1.4289550905   -0.2461242572    1.5080611999
C        1.7215840402    1.8399190942   -0.5215256951
N       -0.4831307185   -1.7867874440    2.8818586618
N        0.8246904554    2.8141846825    0.0954137936
O        3.4969692311    1.6081330784    1.6670334509
P        2.6708973479    0.8196000230    0.6932868314
H        0.3532013915   -0.9057741921   -0.2712588488
H        2.1997027085    0.2014668434    3.4744833690
H       -1.2867128579   -2.2346982387    1.0316304175
H        0.4687294952   -1.2113546827    4.6222217514
H        2.4616138865    2.3685691080   -1.1325256179
H        1.1575359121    1.1869523646   -1.1967786631
H        0.1119384689    2.3452397307    0.6524213929
H        1.3505543236    3.4154673487    0.7283136685
H        3.3839830747   -0.0969339675   -0.1299444104
19   
torsion grid (60,)
C        0.5204680617   -1.1010908701    0.7803490766
C        1.3503304135   -0.2149699083    2.8549709280
C       -0.4168148680   -1.8210615292    1.5262187472
C        0.3722607806   -0.9777661690    3.5040055389
C        1.4265129058   -0.2772470506    1.4603409265
C        1.6679492732    1.8924313091   -0.4678551648
N       -0.5008172854   -1.7671044630    2.8637431475
N        0.9140140108    2.8897216079    0.2872803896
O        3.6017825803    1.4615833274    1.5358145828
P        2.6621952516    0.7565154947    0.6019511797
H        0.5338096395   -1.1965788567   -0.3032809201
H        2.0443057965    0.4076219888    3.4127011630
H       -1.1329486271   -2.4713486921    1.0262722992
H        0.2882163156   -0.9519857842    4.5892924369
H        2.3739635241    2.4028073943   -1.1324114859
H        0.9890278246    1.3096169658   -1.1004959285
H        0.2261466671    2.4410073651    0.8903122030
H        1.5451141733    3.4145169823    0.8915373266
H        3.2477074709   -0.1567050714   -0.3189908076
19   
torsion grid (75,)
C        0.6135636434   -1.2618472201    0.7718669882
C        1.2393624318   -0.1018807090    2.7815465118
C       -0.3300181548   -1.9579748685    1.5327370240
C        0.2634753384   -0.8516674843    3.4482139393
C        1.4138754172   -0.3056352157    1.4087596498
C        1.6229459285    1.9534275896   -0.4054704028
N       -0.5140369644   -1.7623204128    2.8465607104
N        1.0272116272    2.9608625637    0.4675799629
O        3.6869002485    1.3180252590    1.3904805788
P        2.6379713638    0.7038994850    0.5100259945
H        0.7139658996   -1.4756677500   -0.2901933592
H        1.8649501961    0.6075249385    3.3159657262
H       -0.9646278388   -2.7097431324    1.0660420014
H        0.1024960070   -0.7150795217    4.5164117344
H        2.2905665802    2.4473093676   -1.1204214191
H        0.8407624773    1.4473148092   -0.9823668135
H        0.3625003968    2.5342716873    1.1111882777
H        1.7529185811    3.4011501543    1.0318704692
H        3.0884407296   -0.1920054988   -0.4990419353
19   
torsion grid (90,)
C        0.6958577451   -1.4052646976    0.7858880446
C        1.1160067807   -0.0038094930    2.6916627834
C       -0.2376318981   -2.0935461035    1.5673718048
C        0.1590583713   -0.7548543971    3.3819889940
C        1.3819770386   -0.3263729587    1.3552182037
C        1.5970327195    2.0247143943   -0.3430712072
N       -0.5144827134   -1.7797772380    2.8406212283
N        1.1575353043    3.0280710985    0.6221115261
O        3.7439581919    1.1717977170    1.2399701178
P        2.5940988660    0.6625404844    0.4206476176
H        0.8766683882   -1.7182870570   -0.2400575476
H        1.6640424472    0.7901627312    3.1910019387
H       -0.7831929747   -2.9394000422    1.1519238516
H       -0.0726536863   -0.5247350244    4.4207282623
H        2.2365567808    2.5052673411   -1.0922264110
H        0.7320246922    1.6057345094   -0.8691033951
H        0.5022619949    2.6267040687    1.2907541642
H        1.9577944945    3.3747141186    1.1497395821
H        2.9063113658   -0.2036954107   -0.6634139198
19   
torsion grid (105,)
C        0.1391206077    0.3311158628    1.9408020763
C        1.3048944488   -1.6802908541    1.3386637281
C       -0.5729732556   -0.4301885007    2.8742317619
C        0.5400859966   -2.3460267104    2.2999336311
C        1.1112632058   -0.3037465888    1.1597492009
C        3.7797299342    0.7974628324    0.6782577991
N       -0.3831893696   -1.7422999094    3.0631700468
N        4.7409931679    1.4232162189   -0.2275196216
O        2.1570006689    0.0007049375   -1.4483920562
P        2.1006673361    0.5990548252   -0.0729747220
H       -0.0737325970    1.3921157304    1.8331610454
H        2.0188534886   -2.2301911901    0.7313058223
H       -1.3356153125    0.0382800771    3.4944377069
H        0.6718575389   -3.4146381819    2.4616188675
H        3.7071387616    1.3699501829    1.6097187208
H        4.1364021006   -0.2040199381    0.9439954295
H        4.7318981492    0.9363071880   -1.1237170803
H        4.4853376345    2.3912063821   -0.4156944070
H        1.5400931437    1.9035952480    0.0123560265
19   
torsion grid (120,)
C        0.0360948630    0.3163720428    1.8888143878
C        1.3985890899   -1.6090085520    1.4432163179
C       -0.6859831225   -0.4726672045    2.7909443187
C        0.6155725925   -2.3063594011    2.3664337661
C        1.1130130589   -0.2575948291    1.2033762256
C        3.8222855672    0.6990357224    0.6206633767
N       -0.4089501279   -1.7594288663    3.0373885322
N        4.7611020515    1.3339632126   -0.3025992607
O        1.9934779188    0.2412594327   -1.4415338609
P        2.0840968905    0.6903492842   -0.0116635385
H       -0.2474181514    1.3542948604    1.7317537496
H        2.1997944415   -2.1212473730    0.9171759001
H       -1.5278830163   -0.0494365940    3.3366600936
H        0.8191056078   -3.3554301624    2.5747767602
H        3.8613645970    1.1899852137    1.5993905391
H        4.1228810670   -0.3434130964    0.7735636754
H        4.6435455708    0.9358861088   -1.2343709634
H        4.5705549528    2.3314225120   -0.3833164180
H        1.6285817973    2.0136253006    0.2424303741
19   
torsion grid (135,)
C       -0.0462990643    0.2947765037    1.8265413877
C        1.4747413612   -1.5424445298    1.5666556588
C       -0.7888491103   -0.5141276003    2.6925552692
C        0.6644968852   -2.2644281409    2.4473426805
C        1.1221287973   -0.2224805657    1.2536441619
C        3.8634966963    0.5925475399    0.5421831324
N       -0.4480209377   -1.7704362817    3.0089613396
N        4.7663279035    1.2870022582   -0.3753368858
O        1.8465138098    0.4787395738   -1.3936031242
P        2.0872211488    0.7634174490    0.0608721542
H       -0.3828634461    1.3057165237    1.6095359540
H        2.3527480037   -2.0160691796    1.1364789751
H       -1.7005554151   -0.1338531580    3.1505864075
H        0.9212826401   -3.2889382184    2.7118363538
H        4.0102076253    0.9551476674    1.5656566529
H        4.1129990977   -0.4737642044    0.5399720957
H        4.5622003131    1.0016280897   -1.3330929432
H        4.6209001329    2.2944334488   -0.3324429707
H        1.7611492070    2.0847404363    0.4747576764
19   
torsion grid (150,)
C       -0.1180866598    0.2588201593    1.7458283848
C        1.5435398920   -1.4706027272    1.7012292743
C       -0.8718173215   -0.5614532943    2.5895981495
C        0.7139705092   -2.2101251548    2.5504787885
C        1.1264442485   -0.1976665669    1.2914724689
C        3.8826895919    0.4792258188    0.4381340701
N       -0.4724044922   -1.7751210121    2.9952078157
N        4.7599694253    1.2556482560   -0.4389276218
O        1.7096904678    0.7309915471   -1.3174983738
P        2.0949153312    0.8267177462    0.1305520728
H       -0.5043906908    1.2315674325    1.4511781209
H        2.4883292472   -1.8964537895    1.3764160333
H       -1.8413993779   -0.2277023280    2.9557078422
H        1.0194167179   -3.1996744429    2.8868845465
H        4.1280439188    0.6765268024    1.4875523359
H        4.0629428400   -0.5852543564    0.2556322807
H        4.4730741077    1.1259108237   -1.4090329340
H        4.6807822621    2.2514851935   -0.2390951526
H        1.9241156309    2.1187675044    0.7017858742
19   
torsion grid (165,)
C       -0.1809876505    0.2104012393    1.6532305832
C        1.6008777521   -1.3861348084    1.8295583073
C       -0.9369158378   -0.6228583711    2.4811081150
C        0.7610693652   -2.1459712897    2.6518681581
C        1.1242409821   -0.1738700649    1.3159413911
C        3.8761425068    0.3792276958    0.3318553638
N       -0.4847557035   -1.7826754162    2.9806725489
N        4.7515997328    1.2029592499   -0.5036747351
O        1.6054492852    1.0378216448   -1.1921781345
P        2.1094242457    0.9033836072    0.2154230393
H       -0.6126089898    1.1323303801    1.2717757145
H        2.5995202599   -1.7509306423    1.6088814868
H       -1.9533546168   -0.3460005816    2.7561272934
H        1.1102448282   -3.0915548879    3.0639190594
H        4.2116532115    0.4148090071    1.3742051567
H        3.9523659763   -0.6603193790   -0.0041315528
H        4.3922288290    1.2218576231   -1.4579751987
H        4.7620773330    2.1670350540   -0.1743335381
H        2.1115541390    2.1220975514    0.9508309175
19   
torsion grid (180,)
C       -0.2195483408    0.1544349830    1.5600840680
C        1.6455107656   -1.3018851699    1.9616012029
C       -0.9832927035   -0.6916884382    2.3676812404
C        0.7918770855   -2.0828029422    2.7494424904
C        1.1316272882   -0.1524822755    1.3489582802
C        3.8536608787    0.3075615805    0.2269726962
N       -0.4979857589   -1.7931545622    2.9600052887
N        4.7309751822    1.1531976809   -0.5843510597
O        1.5339883951    1.3288282730   -1.0131081398
P        2.1339176402    0.9754521425    0.3165709039
H       -0.6761108335    1.0211650449    1.0896756243
H        2.6813040245   -1.6046480862    1.8405054595
H       -2.0351016396   -0.4750886826    2.5470842470
H        1.1669277682   -2.9838292715    3.2325468180
H        4.2701882206    0.2030285700    1.2347379266
H        3.8148002079   -0.6915251238   -0.2204809055
H        4.3063259890    1.3073755809   -1.4986421605
H        4.8458054477    2.0701199522   -0.1552725235
H        2.3049560313    2.0875483559    1.1890925189
