20   
torsion grid (-165,)
C        1.2071689397    4.2381464617   -2.7545538041
C        0.9597117918    2.7399278972   -2.9851155516
C       -0.3544517576    2.5302895698   -3.7524425605
C        0.9790311811    1.9770899577   -1.6469985252
C        1.0500695797    0.4476488791   -1.7684525327
C        0.7013549533   -0.2689546139   -0.4585880103
H        2.1694048993    4.4123966897   -2.2600638538
H        0.4231615593    4.6682490222   -2.1186561358
H        1.2088972788    4.7928568379   -3.6997189477
H        1.7815337571    2.3545819311   -3.6064601200
H       -0.5431281635    1.4750593687   -3.9724840390
H       -1.2047761204    2.9077157600   -3.1704962379
H       -0.3406883236    3.0680358173   -4.7070610379
H        0.0766906951    2.2527561299   -1.0812834729
H        1.8287964967    2.3232772046   -1.0437487420
H        2.0549935647    0.1559603715   -2.0998202296
H        0.3613065666    0.1025590705   -2.5483675522
H        0.7879648159   -1.3563617922   -0.5600619359
H        1.3657811051    0.0435105475    0.3559186161
H       -0.3259354554   -0.0416957942   -0.1515148861
20   
torsion grid (-150,)
C        1.2844040343    4.2822904332   -2.7303458490
C        0.9935919294    2.7883069988   -2.9339328102
C       -0.3728373538    2.5988658295   -3.6095549794
C        1.0803240726    2.0288905284   -1.5961242083
C        1.1512150254    0.4950050997   -1.7243951722
C        0.5249928442   -0.2386153571   -0.5325811323
H        2.2834811395    4.4403806379   -2.3088949573
H        0.5573399668    4.7291994784   -2.0406358473
H        1.2264779240    4.8334178659   -3.6758693567
H        1.7652283823    2.3828819463   -3.6049012208
H       -0.6098630598    1.5433623238   -3.7769274627
H       -1.1705863605    3.0250343350   -2.9882916525
H       -0.4039887346    3.1021860395   -4.5823280614
H        0.2000644364    2.3020548435   -0.9960976638
H        1.9494351624    2.3840402027   -1.0280745585
H        2.1960957557    0.1853935080   -1.8493664341
H        0.6341414356    0.1749517652   -2.6366877006
H        0.6192043736   -1.3255461321   -0.6338417852
H        1.0038430973    0.0506730037    0.4106072146
H       -0.5412908882    0.0001563937   -0.4474844728
20   
torsion grid (-135,)
C        1.2620904284    4.2830930161   -2.7558527443
C        0.9945848501    2.7795573199   -2.9139986369
C       -0.4126237386    2.5428637202   -3.4823711659
C        1.1952316517    2.0435297058   -1.5758141317
C        1.2486582521    0.5020069216   -1.6860328664
C        0.4104263294   -0.2144993341   -0.6204297513
H        2.2837465884    4.4720981553   -2.4075458244
H        0.5735845886    4.7257965198   -2.0251349936
H        1.1255931613    4.8149684262   -3.7043189147
H        1.7252069257    2.3800534706   -3.6325376551
H       -0.6342618125    1.4776950718   -3.6055940064
H       -1.1725511687    2.9654536931   -2.8131319364
H       -0.5288293699    3.0202456823   -4.4617794662
H        0.3743189199    2.3344780809   -0.9050796445
H        2.1118816791    2.4094041878   -1.0973847607
H        2.2894649012    0.1629548769   -1.6243444058
H        0.8951743815    0.1885104466   -2.6753951953
H        0.4840055093   -1.3037909420   -0.7144853408
H        0.7374121039    0.0560478053    0.3905183858
H       -0.6470037318    0.0603805396   -0.7093066455
20   
torsion grid (-120,)
C        1.2138554423    4.2716379930   -2.7785166102
C        0.9933806932    2.7575401943   -2.9014421805
C       -0.4357714666    2.4582640506   -3.3784299384
C        1.3075239753    2.0479638689   -1.5714629231
C        1.3258710427    0.5010967855   -1.6520836261
C        0.2991032563   -0.1729004838   -0.7333996793
H        2.2454604275    4.5026092814   -2.4896916521
H        0.5505327809    4.7012806326   -2.0174222781
H        1.0067559957    4.7829458257   -3.7254803565
H        1.6929778856    2.3741809410   -3.6584415555
H       -0.6168606772    1.3835835526   -3.4844027075
H       -1.1698083195    2.8504023973   -2.6633191446
H       -0.6346230031    2.9249316935   -4.3497367103
H        0.5675581073    2.3706247026   -0.8258490542
H        2.2755446021    2.4098503335   -1.2044024778
H        2.3260325900    0.1298981783   -1.4002192863
H        1.1457197495    0.1809632454   -2.6852746160
H        0.3383350493   -1.2648823128   -0.8172436261
H        0.4788966496    0.0885473453    0.3158253633
H       -0.7194528638    0.1467443461   -0.9825886985
20   
torsion grid (-105,)
C        0.9891078643    4.0990796164   -2.8815436657
C        0.8337756741    2.5732789789   -2.9488424361
C       -0.6051241921    2.1940903122   -3.3289145237
C        1.2811059942    1.9235382065   -1.6258653590
C        1.2820753705    0.3763918655   -1.6245701360
C        0.1146475986   -0.2453665506   -0.8460737430
H        2.0213192725    4.3859576894   -2.6505820954
H        0.3433954923    4.5224040820   -2.1020308225
H        0.7136929266    4.5698729016   -3.8320763625
H        1.5005787525    2.2005630193   -3.7400012641
H       -0.7266832519    1.1125232403   -3.4448952751
H       -1.3111448961    2.5294233060   -2.5588688490
H       -0.8973865269    2.6627694843   -4.2754354126
H        0.6382201098    2.2926726500   -0.8145200385
H        2.2896029954    2.2897605055   -1.3975675386
H        2.2196760921    0.0123291680   -1.1884215395
H        1.2737452844    0.0069304111   -2.6577239446
H        0.1457053752   -1.3401656071   -0.8842303691
H        0.1487752272    0.0527080996    0.2081588681
H       -0.8525236744    0.0761079479   -1.2469860801
20   
torsion grid (-90,)
C        1.0198365493    4.1017510657   -2.8491781105
C        0.8470013131    2.5762728191   -2.9086435116
C       -0.6133038896    2.2172362574   -3.2183633735
C        1.3893247394    1.9346466731   -1.6159567182
C        1.3508246297    0.3940849922   -1.5400886518
C        0.0643533484   -0.1978830539   -0.9456160687
H        2.0631462180    4.3798143561   -2.6614541353
H        0.4108311663    4.5313888112   -2.0439730394
H        0.7095221862    4.5740685854   -3.7880296977
H        1.4628311625    2.2024256406   -3.7399100579
H       -0.7398995841    1.1488363579   -3.4146979858
H       -1.2715813204    2.4880510646   -2.3836552293
H       -0.9624952199    2.7569735008   -4.1060827067
H        0.8461667315    2.3523641838   -0.7555199918
H        2.4289705437    2.2664724255   -1.5014305177
H        2.1941060061    0.0516232414   -0.9282546136
H        1.5217446919   -0.0232545013   -2.5417130946
H        0.1195331938   -1.2916229145   -0.9045061931
H       -0.0894036572    0.1638796044    0.0779330253
H       -0.8242140865    0.0679528337   -1.5231599374
20   
torsion grid (-75,)
C        1.0717763447    4.0454127217   -3.0376648739
C        0.6488984675    2.5766617211   -2.8728120970
C       -0.8803106441    2.4651010640   -2.9878765916
C        1.2029625311    2.0048154432   -1.5486369023
C        1.4285173570    0.4827075075   -1.4873070158
C        0.1720711440   -0.3881642544   -1.3478016284
H        2.1625430325    4.1493156599   -3.0446403875
H        0.6841311950    4.6560414600   -2.2124462758
H        0.6866664867    4.4687684176   -3.9723289737
H        1.0970312426    2.0049966352   -3.6982621372
H       -1.2307739981    1.4324805003   -2.9276189918
H       -1.3671382113    3.0281053458   -2.1817223381
H       -1.2313835445    2.8802901264   -3.9396000014
H        0.5527558609    2.3153056944   -0.7182500107
H        2.1741077687    2.4806081258   -1.3608631827
H        2.0778224968    0.2790354941   -0.6261469938
H        1.9978608763    0.1685399473   -2.3721813171
H        0.4440475334   -1.4290551376   -1.1397572577
H       -0.4603912668   -0.0376890204   -0.5238168174
H       -0.4364696779   -0.3883809687   -2.2564008139
20   
torsion grid (-60,)
C        1.1509301847    3.8844506752   -3.1704799676
C        0.6194543756    2.4898927990   -2.8039811306
C       -0.9181143988    2.5006619132   -2.8111410027
C        1.2005659726    2.0175989690   -1.4495360025
C        1.4977686894    0.5125374534   -1.3369178140
C        0.2965542722   -0.4223954491   -1.5248599257
H        2.2432610174    3.8844100145   -3.2575318627
H        0.8778285312    4.6181808024   -2.4016952457
H        0.7364315151    4.2325493570   -4.1236457442
H        0.9597595438    1.7905431307   -3.5812143299
H       -1.3415292256    1.5284587479   -2.5468931129
H       -1.2970598717    3.2339513350   -2.0882799183
H       -1.3053944411    2.7785136274   -3.7982299436
H        0.5185507477    2.3181670599   -0.6417369142
H        2.1406625225    2.5509435771   -1.2605858453
H        1.9434875322    0.3239593530   -0.3518448534
H        2.2701909734    0.2515070367   -2.0730670984
H        0.5842371148   -1.4638666718   -1.3431100981
H       -0.5142463199   -0.1744462715   -0.8297919346
H       -0.1065402209   -0.3677617643   -2.5409001778
20   
torsion grid (-45,)
C        1.1072187948    3.8046628707   -3.2289822306
C        0.6242693425    2.4214977982   -2.7630866253
C       -0.9104655171    2.4112761131   -2.6783976740
C        1.2950306846    2.0373266451   -1.4236809092
C        1.5586230116    0.5363233479   -1.1839082856
C        0.4204284392   -0.4330478111   -1.5268333955
H        2.1918458548    3.8167799282   -3.3842762774
H        0.8690337764    4.5713118261   -2.4809289461
H        0.6282224453    4.0992580171   -4.1698305237
H        0.9318522669    1.6915500656   -3.5255940279
H       -1.3049339730    1.4463022849   -2.3524670575
H       -1.2563560039    3.1692481774   -1.9644759368
H       -1.3578472656    2.6446788749   -3.6514582192
H        0.6745770183    2.4328911266   -0.6067957294
H        2.2581761654    2.5552711386   -1.3400646535
H        1.8502347131    0.3986696037   -0.1354542960
H        2.4355434837    0.2449905390   -1.7784333816
H        0.7219847312   -1.4640580200   -1.3110263641
H       -0.4824637488   -0.2247540197   -0.9414168793
H        0.1511819193   -0.3854295446   -2.5862392521
20   
torsion grid (-30,)
C        1.0063343253    3.7224518575   -3.2168054369
C        0.5645970418    2.3353428368   -2.7213663631
C       -0.9621130752    2.3128071957   -2.5478193684
C        1.3173529181    1.9725838474   -1.4216298289
C        1.5175290370    0.4711645931   -1.0893011252
C        0.4583475752   -0.5259795889   -1.5791920135
H        2.0800294131    3.7455366618   -3.4341548561
H        0.8031842632    4.4890282299   -2.4583641864
H        0.4710460522    4.0090296807   -4.1292701272
H        0.8348609388    1.6086526163   -3.5002559695
H       -1.3319401790    1.3423953751   -2.2108170500
H       -1.2708976791    3.0618239417   -1.8078265080
H       -1.4657254607    2.5525497141   -3.4913780247
H        0.7840689119    2.4589769658   -0.5925704328
H        2.3094323983    2.4385202085   -1.4417387238
H        1.6418293121    0.3651240880   -0.0053308613
H        2.4748813743    0.1570092959   -1.5261700351
H        0.7740251377   -1.5489490010   -1.3460001358
H       -0.5134445802   -0.3685570029   -1.0992000370
H        0.3112126003   -0.4670047184   -2.6616595365
20   
torsion grid (-15,)
C        0.9392831235    3.7231140566   -3.2414858773
C        0.5091699107    2.3490534016   -2.7017874793
C       -1.0063135276    2.3457775224   -2.4473635836
C        1.3232402706    2.0043818588   -1.4353034332
C        1.4677454340    0.5098387519   -1.0160145477
C        0.5290590499   -0.5276548331   -1.6509689561
H        2.0001618106    3.7304618571   -3.5154928279
H        0.7845500219    4.5041917485   -2.4864314213
H        0.3596706051    4.0009591536   -4.1291942470
H        0.7306556117    1.6083005879   -3.4813763872
H       -1.3659291873    1.3841709402   -2.0751567639
H       -1.2680216983    3.1092386616   -1.7038869565
H       -1.5586601312    2.5749653855   -3.3659379617
H        0.8794229175    2.5710831791   -0.6056351365
H        2.3330811594    2.4130619358   -1.5544559809
H        1.3838507112    0.4378964537    0.0741480479
H        2.4921195070    0.1939811708   -1.2487858682
H        0.8394934842   -1.5358477215   -1.3549341961
H       -0.5100381524   -0.4035702813   -1.3315817755
H        0.5498990313   -0.4876063049   -2.7442143475
20   
torsion grid (0,)
C        1.1630001589    4.3757307245   -2.7818921025
C        1.0361325281    2.8456283335   -2.7163260262
C        0.7581627571    2.2869333549   -4.1216814435
C       -0.0614800874    2.4435317644   -1.7076475825
C       -0.0114566405    1.0143981735   -1.0796634109
C        1.1324969430    0.0784016265   -1.4999600525
H        1.4490729952    4.7948251814   -1.8107055774
H        0.2103120138    4.8342374100   -3.0753617087
H        1.9174986204    4.6806135975   -3.5161429257
H        1.9986434455    2.4497211417   -2.3710173193
H        0.6218095869    1.2020604736   -4.1185287269
H       -0.1568501470    2.7321845561   -4.5324429527
H        1.5782019352    2.5186126048   -4.8110311124
H       -1.0339882476    2.5947557291   -2.1928432288
H       -0.0344603808    3.1690840888   -0.8860207311
H       -0.9566371257    0.5011596535   -1.2914709915
H        0.0240656678    1.1159345611    0.0107974965
H        1.0448126848   -0.8747398133   -0.9667014964
H        1.1201901582   -0.1446573713   -2.5700181535
H        2.1160406745    0.4949091181   -1.2585323082
20   
torsion grid (15,)
C        1.1131096471    4.3035888849   -2.8177201275
C        0.9671595381    2.7755251059   -2.7609891529
C        0.6235960927    2.2283974012   -4.1565608582
C       -0.0923088065    2.3761665179   -1.7151752624
C       -0.0938508334    0.9049464853   -1.2044069572
C        1.1530071873    0.0568307815   -1.4975879694
H        1.4349859626    4.7102200158   -1.8524053683
H        0.1588069494    4.7782922538   -3.0780094360
H        1.8493600448    4.6039412122   -3.5720770277
H        1.9350597035    2.3613476925   -2.4551010966
H        0.4673224348    1.1454228404   -4.1495349434
H       -0.2992499543    2.6904351324   -4.5293612481
H        1.4189963396    2.4467787760   -4.8783438468
H       -1.0856631897    2.6285201208   -2.1069578039
H        0.0535402462    3.0321540849   -0.8472369793
H       -0.9533319759    0.3790896921   -1.6384630571
H       -0.2716276263    0.9092973095   -0.1234694461
H        1.0278503309   -0.9475640743   -1.0781068992
H        1.3365070007   -0.0557139824   -2.5691056946
H        2.0568806047    0.4854103187   -1.0496308172
20   
torsion grid (30,)
C        1.0123974427    4.1608017627   -2.8611141884
C        0.8977358599    2.6307353809   -2.7972991783
C        0.5060449019    2.0682912880   -4.1732291422
C       -0.1034192846    2.2129769339   -1.7051835747
C       -0.1455378266    0.7126867582   -1.3219338570
C        1.1711119387   -0.0624492100   -1.4722177097
H        1.3478197627    4.5762039892   -1.9040902407
H        0.0436322697    4.6164604936   -3.1010318647
H        1.7260077937    4.4733214557   -3.6320479394
H        1.8851878203    2.2352857308   -2.5305002897
H        0.4038497417    0.9785790499   -4.1591716425
H       -0.4561036621    2.4848936346   -4.4969016833
H        1.2512995063    2.3236947406   -4.9351563750
H       -1.1102174955    2.5420663741   -1.9937901799
H        0.1487599444    2.7866996310   -0.8025936949
H       -0.8991327406    0.2058711241   -1.9387518486
H       -0.5040823691    0.6261795435   -0.2899717359
H        1.0456397609   -1.0937334077   -1.1244212884
H        1.5073020526   -0.1050202722   -2.5116165992
H        1.9783774752    0.3866357511   -0.8811382478
20   
torsion grid (45,)
C        0.9801470724    4.1360892961   -2.8232008459
C        0.8629806425    2.6050760554   -2.8087086692
C        0.4090760023    2.0869565878   -4.1817616876
C       -0.0827239031    2.1524574901   -1.6817322741
C       -0.2121806421    0.6322274024   -1.4642729587
C        1.1147771827   -0.1380642636   -1.4695258421
H        1.3373367698    4.5178054892   -1.8599409293
H        0.0071964211    4.6009934284   -3.0256179183
H        1.6774586208    4.4741758407   -3.5981647181
H        1.8613953930    2.1989826955   -2.6027155014
H        0.3616168612    0.9937845420   -4.2136757449
H       -0.5896089772    2.4693437328   -4.4278226592
H        1.0935507280    2.4127342729   -4.9731542622
H       -1.0810716260    2.5748332377   -1.8605022432
H        0.2737440665    2.6058434896   -0.7459654255
H       -0.8642764359    0.2063057949   -2.2376383412
H       -0.7295799667    0.4622636470   -0.5124349682
H        0.9524726517   -1.1912647675   -1.2156916500
H        1.6009450203   -0.1076248493   -2.4491521226
H        1.8200377269    0.2741362164   -0.7374940279
20   
torsion grid (60,)
C        1.0370954676    4.1673471267   -2.8068212659
C        0.8861217845    2.6390885977   -2.8173231360
C        0.3586331186    2.1575850156   -4.1765722402
C       -0.0106517033    2.1874003206   -1.6489897871
C       -0.2217581295    0.6719922414   -1.5029442994
C        1.0721558762   -0.1215376071   -1.2812109356
H        1.4371155853    4.5217939831   -1.8499785427
H        0.0675233080    4.6563547970   -2.9639300074
H        1.7129170905    4.5065737584   -3.6000114497
H        1.8854229513    2.2079184972   -2.6705879465
H        0.3362951293    1.0654493767   -4.2458907513
H       -0.6611834935    2.5238847335   -4.3501742811
H        0.9880322545    2.5270728256   -4.9939234442
H       -0.9913712304    2.6720870434   -1.7578030780
H        0.4174066750    2.5736916909   -0.7135005733
H       -0.7457651339    0.2799386688   -2.3827319480
H       -0.8949364504    0.5008072751   -0.6535071155
H        0.8590274698   -1.1799093456   -1.0958285035
H        1.7365248658   -0.0677739942   -2.1500507801
H        1.6267574224    0.2636590165   -0.4170939727
20   
torsion grid (75,)
C        1.1243066612    4.1239004817   -2.7708681102
C        0.8648161294    2.6144254443   -2.8857353895
C        0.2087110621    2.2861192554   -4.2349143926
C        0.0198079339    2.1274992961   -1.6920374146
C       -0.1439313471    0.6036815235   -1.5635288886
C        1.1127794679   -0.1054139143   -1.0415090154
H        1.6369921536    4.3702358787   -1.8341915853
H        0.1807057383    4.6836394143   -2.7912744679
H        1.7434255140    4.4868643746   -3.5990572659
H        1.8387539498    2.1067585311   -2.8506045920
H        0.0765711419    1.2096025128   -4.3807408599
H       -0.7795224604    2.7573436634   -4.3098308386
H        0.8178938477    2.6577270679   -5.0664631848
H       -0.9736206910    2.5913623236   -1.7717072403
H        0.4601671281    2.5120023442   -0.7620769772
H       -0.4450952263    0.1704193050   -2.5239756631
H       -0.9709431776    0.3997857674   -0.8718257155
H        0.9479088440   -1.1835723076   -0.9389027955
H        1.9670353586    0.0337603711   -1.7133411653
H        1.3994366188    0.2841060719   -0.0576979720
20   
torsion grid (90,)
C        1.2231672458    4.0297487744   -2.7961692473
C        0.8528551119    2.5474150900   -2.9485234128
C        0.0814270209    2.3219912345   -4.2573091310
C        0.0585497141    2.0554605105   -1.7222219613
C       -0.0473145447    0.5224375561   -1.5947936993
C        1.1019627597   -0.0888798559   -0.7821506906
H        1.8317362427    4.1984553470   -1.9006530956
H        0.3212166370    4.6484174737   -2.7074939967
H        1.7894532293    4.3916718632   -3.6618691621
H        1.7885252281    1.9717266557   -3.0017335833
H       -0.1880459502    1.2711472150   -4.4034793492
H       -0.8466182436    2.9074267034   -4.2623375986
H        0.6761988650    2.6336830065   -5.1232103914
H       -0.9464599876    2.4964409668   -1.7736408153
H        0.5165370401    2.4556724352   -0.8084153022
H       -0.0843787655    0.0613383125   -2.5882332311
H       -0.9948146321    0.2606382980   -1.1083846896
H        1.0258179083   -1.1808733811   -0.7355938064
H        2.0767599407    0.1563954003   -1.2203463725
H        1.0970954384    0.2917632933    0.2455464724
20   
torsion grid (105,)
C        1.2265284786    3.9827319246   -2.8357303430
C        0.8756189299    2.4995647622   -3.0205586119
C        0.0054081638    2.3074649413   -4.2713715806
C        0.1936575555    1.9367167546   -1.7586641988
C        0.1052789163    0.3930922532   -1.7090555938
C        1.1125068207   -0.2303978648   -0.7338082709
H        1.8974976618    4.1303643253   -1.9820258516
H        0.3217619898    4.5767041735   -2.6551186265
H        1.7185641747    4.3909130456   -3.7258806898
H        1.8150692982    1.9466673621   -3.1697726930
H       -0.2560782801    1.2570257339   -4.4350053599
H       -0.9307262150    2.8722374190   -4.1777550612
H        0.5211448896    2.6643488927   -5.1699315005
H       -0.8102692091    2.3770266566   -1.6918415312
H        0.7345973965    2.2918300319   -0.8723849520
H        0.2656872788   -0.0244008507   -2.7096659468
H       -0.9048065296    0.0834165391   -1.4166089443
H        1.0546628637   -1.3246272565   -0.7386229321
H        2.1402003841    0.0499968945   -0.9947449685
H        0.9275769667    0.1108181267    0.2911414837
20   
torsion grid (120,)
C        1.1435778000    4.2373730555   -2.8865431567
C        0.8308044860    2.7514638356   -3.1108126804
C       -0.1199928168    2.5752117243   -4.3041537897
C        0.2621504286    2.1104507733   -1.8315696870
C        0.1720209417    0.5645027523   -1.8695248257
C        0.9978741189   -0.1120798448   -0.7679226296
H        1.8652735495    4.3749508845   -2.0734206347
H        0.2340599451    4.7912514112   -2.6222374929
H        1.5612150732    4.6976602298   -3.7892043910
H        1.7748234398    2.2385690973   -3.3474425389
H       -0.3536326591    1.5218239089   -4.4901509003
H       -1.0670215205    3.0983021570   -4.1205756832
H        0.3150368595    2.9865345295   -5.2219861153
H       -0.7256203679    2.5467889251   -1.6324173619
H        0.8944904298    2.4093854846   -0.9857488472
H        0.5228181764    0.1987263552   -2.8421220717
H       -0.8717466730    0.2401261666   -1.7903286689
H        0.9334223563   -1.2043067074   -0.8291480027
H        2.0556317952    0.1658539133   -0.8466618775
H        0.6510126457    0.1883731386    0.2276172961
20   
torsion grid (135,)
C        1.1254092289    4.2828812128   -2.9098943494
C        0.8466761788    2.7911436130   -3.1393874580
C       -0.1720077007    2.5987840344   -4.2728518150
C        0.3852717536    2.1116159901   -1.8381611353
C        0.2649121597    0.5724573524   -1.9225158385
C        0.8749678043   -0.1456654205   -0.7123398109
H        1.8828398463    4.4325428128   -2.1320842165
H        0.2143352153    4.8055438336   -2.5929414529
H        1.4833702041    4.7665495654   -3.8258689937
H        1.7891973170    2.3126753412   -3.4433997809
H       -0.3660809861    1.5397541042   -4.4715418081
H       -1.1287918759    3.0698362070   -4.0140251085
H        0.1811889244    3.0534327146   -5.2053287771
H       -0.5692064385    2.5521569010   -1.5202287710
H        1.1073908917    2.3663228867   -1.0510589263
H        0.7789654950    0.2186759332   -2.8255204455
H       -0.7832399098    0.2753874214   -2.0413886481
H        0.7709266831   -1.2333586431   -0.7951819521
H        1.9430765611    0.0838721823   -0.6229444104
H        0.3914765735    0.1655152524    0.2213124824
20   
torsion grid (150,)
C        1.0970362845    4.2674995441   -2.9364951444
C        0.8527985404    2.7715182247   -3.1783541666
C       -0.2192997813    2.5644066096   -4.2586818702
C        0.4896936982    2.0570581695   -1.8650956643
C        0.3586818336    0.5263888061   -1.9796946106
C        0.7240285631   -0.2034007130   -0.6814698750
H        1.8853670046    4.4281618906   -2.1922559662
H        0.1866933816    4.7568961453   -2.5685124641
H        1.3971123204    4.7762279130   -3.8596458260
H        1.7914617942    2.3294464907   -3.5429046645
H       -0.3690524468    1.5041052357   -4.4859569191
H       -1.1826669420    2.9747604400   -3.9300876150
H        0.0561648328    3.0691165505   -5.1916106234
H       -0.4379767384    2.4842147376   -1.4595365620
H        1.2725441328    2.2871678985   -1.1294057744
H        1.0233842940    0.1689071233   -2.7777140869
H       -0.6568855544    0.2531665941   -2.2886307218
H        0.6028035679   -1.2877163241   -0.7818467546
H        1.7658516820   -0.0059801823   -0.4042760851
H        0.0928619533    0.1262556797    0.1525182566
20   
torsion grid (165,)
C        1.0563709828    4.2547748124   -2.8552446780
C        0.8526366099    2.7551207754   -3.1141742133
C       -0.3108955706    2.5286906260   -4.0910559008
C        0.6554555608    1.9986625897   -1.7887356427
C        0.5603932759    0.4717656009   -1.9211176970
C        0.7330058974   -0.2507264134   -0.5798259250
H        1.9040831534    4.4325883578   -2.1837581874
H        0.1652653425    4.6947017667   -2.3903666978
H        1.2463838879    4.7978016550   -3.7879902290
H        1.7681691634    2.3660288087   -3.5830838817
H       -0.4211971461    1.4732602341   -4.3586374586
H       -1.2582751530    2.8628188563   -3.6490476846
H       -0.1606529685    3.0918656109   -5.0190452225
H       -0.2431277130    2.3802255897   -1.2826556403
H        1.4995215958    2.2399141099   -1.1277273811
H        1.3342972635    0.1229009118   -2.6184792313
H       -0.4010527799    0.1913750850   -2.3668340559
H        0.6442092390   -1.3366601806   -0.6943120097
H        1.7159089248   -0.0390579720   -0.1433197158
H       -0.0253135622    0.0707888808    0.1440094608
20   
torsion grid (180,)
C        1.1698110195    4.2386214409   -2.7088299063
C        0.9688086603    2.7369189488   -2.9608631216
C       -0.2809502278    2.5016430488   -3.8224992779
C        0.9139160019    1.9713629599   -1.6262960464
C        0.8963052201    0.4424313989   -1.7472730638
C        0.8413369838   -0.2560415226   -0.3834330470
H        2.0801604559    4.4280785584   -2.1289011111
H        0.3244249707    4.6557185062   -2.1473747201
H        1.2489566912    4.7938116919   -3.6503449066
H        1.8407724710    2.3700819684   -3.5219541680
H       -0.4014446207    1.4492955620   -4.0968280613
H       -1.1857395996    2.8138160108   -3.2854832230
H       -0.2302975289    3.0804901490   -4.7515545570
H        0.0252805348    2.2998192912   -1.0670764851
H        1.7796543957    2.2638902423   -1.0162713750
H        1.7890874283    0.1126862039   -2.2953414531
H        0.0343918927    0.1235089641   -2.3446661674
H        0.8349594935   -1.3462305957   -0.4910310950
H        1.7053779213    0.0133250722    0.2353558313
H       -0.0615454409    0.0301602226    0.1685198271
