23   
torsion grid (-165,)
C        1.4500289003    0.9367641917   -2.0127218641
C        1.3871489514   -0.4405261339   -1.3423647228
C        2.5870481111   -0.7211090749   -0.4266945188
C        2.7314607969   -2.1983337536   -0.0429909085
C        3.9099588563   -2.4725279075    0.8979261590
C        4.0653776479   -3.9523926927    1.2682281965
C        5.2452779073   -4.2153768001    2.2108330493
H        0.5735089511    1.1166207249   -2.6448826488
H        2.3417703377    1.0236281163   -2.6440686332
H        1.4937038026    1.7404514387   -1.2679637561
H        1.3445227193   -1.2131376526   -2.1218030986
H        0.4564739411   -0.5371371235   -0.7686024977
H        3.5072507230   -0.3980244022   -0.9337334655
H        2.5101855322   -0.1057457744    0.4799815175
H        1.8020425315   -2.5469267129    0.4291055481
H        2.8497415955   -2.7957770081   -0.9573730747
H        3.7876982627   -1.8808280210    1.8158968724
H        4.8387322604   -2.1172330204    0.4297945412
H        3.1370550850   -4.3074746066    1.7350923593
H        4.1903083448   -4.5431887655    0.3510515423
H        5.3326299931   -5.2790787225    2.4579460713
H        6.1916901672   -3.8996573747    1.7563749961
H        5.1303493604   -3.6629051626    3.1507663907
23   
torsion grid (-150,)
C        1.6538066619    0.8924878698   -2.2383082292
C        1.4299437973   -0.3572900980   -1.3786868143
C        2.5924697367   -0.6470051019   -0.4105130239
C        2.7772339097   -2.1379628937   -0.1034163408
C        3.9088235518   -2.4221852597    0.8902877430
C        4.1105830243   -3.9150894345    1.1764271449
C        5.2426921126   -4.1884541068    2.1731771106
H        0.8021008067    1.0832545948   -2.9006774891
H        2.5465808132    0.7782436324   -2.8637097680
H        1.7984552893    1.7844748228   -1.6169447428
H        1.3000020602   -1.2188581909   -2.0469814828
H        0.4909817034   -0.2677822607   -0.8187225624
H        3.5263431740   -0.2686824809   -0.8492481294
H        2.4520952400   -0.0859899492    0.5225831915
H        1.8374182959   -2.5517264964    0.2890400805
H        2.9744944649   -2.6721104808   -1.0429613219
H        3.7046611352   -1.8972441861    1.8339377860
H        4.8463549000   -1.9978310939    0.5041824123
H        3.1734194713   -4.3391744242    1.5607366216
H        4.3178971179   -4.4388412205    0.2337957067
H        5.3652339419   -5.2613765921    2.3575136923
H        6.1987389434   -3.8027094102    1.8002355584
H        5.0454099208   -3.7047655917    3.1370381054
23   
torsion grid (-135,)
C        1.7495736702    0.7836782206   -2.2820704275
C        1.3841566303   -0.3105830745   -1.2716606879
C        2.5203656722   -0.6264578313   -0.2716728361
C        2.7520916471   -2.1275875691   -0.0591354254
C        3.8685951295   -2.4381407204    0.9433496545
C        4.1094721621   -3.9389564446    1.1451480514
C        5.2288925602   -4.2381979052    2.1487882771
H        0.9225263438    0.9885285747   -2.9711321001
H        2.6186696978    0.4853502036   -2.8798654032
H        2.0035872213    1.7232381578   -1.7770618729
H        1.1302423177   -1.2229933883   -1.8264043108
H        0.4731416048   -0.0280823371   -0.7310608866
H        3.4567672954   -0.1836518476   -0.6373122434
H        2.3215731936   -0.1437823114    0.6934187068
H        1.8181003643   -2.5978169781    0.2795512122
H        2.9911777427   -2.5907271374   -1.0265167603
H        3.6267898739   -1.9770888824    1.9112313135
H        4.8012340125   -1.9639360023    0.6065407232
H        3.1779830471   -4.4121590001    1.4830713330
H        4.3516374473   -4.3993767488    0.1780834579
H        5.3793161969   -5.3161771732    2.2732118017
H        6.1804113998   -3.8043591531    1.8196898598
H        4.9980976603   -3.8175570343    3.1345359786
23   
torsion grid (-120,)
C        1.7677263822    0.6851445361   -2.3785195859
C        1.2852234569   -0.2158321682   -1.2346806202
C        2.3965844363   -0.5543087835   -0.2099688547
C        2.6773361925   -2.0572284860   -0.0842016011
C        3.7920341598   -2.3902945681    0.9128574450
C        4.0731658967   -3.8925913889    1.0369922073
C        5.1905781936   -4.2142849577    2.0359114519
H        0.9645754954    0.8936885430   -3.0942746767
H        2.5912222240    0.2131913636   -2.9276660175
H        2.1335108549    1.6454155992   -1.9967462852
H        0.8862625669   -1.1455768329   -1.6590199056
H        0.4404594811    0.2666470376   -0.7294884002
H        3.3262671793   -0.0454780224   -0.4968158156
H        2.1347944608   -0.1574681834    0.7787454513
H        1.7547590432   -2.5738593243    0.2148420608
H        2.9418846301   -2.4570655136   -1.0733486012
H        3.5274114209   -1.9887660687    1.9011740310
H        4.7142008094   -1.8729823767    0.6128486491
H        3.1521607179   -4.4089377162    1.3385323338
H        4.3378382592   -4.2935182987    0.0495543758
H        5.3696748349   -5.2928734921    2.1046648257
H        6.1328566482   -3.7377678447    1.7410362481
H        4.9385140085   -3.8532917383    3.0399309531
23   
torsion grid (-105,)
C        1.8900511073    0.5410894204   -2.5303372227
C        1.2846180833   -0.1250280646   -1.2878999219
C        2.3485650742   -0.5728898895   -0.2581438475
C        2.5846036798   -2.0889562506   -0.2464955397
C        3.6796660595   -2.5308085604    0.7298904729
C        3.9047712835   -4.0474464583    0.7513704119
C        5.0019826874   -4.4783703887    1.7313531328
H        1.1184861547    0.8131595395   -3.2593085497
H        2.6002336832   -0.1277110055   -3.0316554007
H        2.4319318755    1.4541452348   -2.2588533249
H        0.6812551706   -0.9893963165   -1.5914850990
H        0.5857676622    0.5789063569   -0.8206328281
H        3.2969168475   -0.0580070594   -0.4598830020
H        2.0488879629   -0.2626329624    0.7508789918
H        1.6434594513   -2.5953452846    0.0077117573
H        2.8456004911   -2.4244529186   -1.2604424447
H        3.4230336464   -2.1886670567    1.7424397654
H        4.6221258448   -2.0285889757    0.4703020673
H        2.9632219226   -4.5488989015    1.0118724473
H        4.1620099732   -4.3888689765   -0.2601066501
H        5.1412541085   -5.5649837655    1.7259489745
H        5.9632256689   -4.0175532696    1.4753144959
H        4.7553521366   -4.1787525524    2.7566877683
23   
torsion grid (-90,)
C        1.9187320191    0.4170789594   -2.5625394779
C        1.3005836786   -0.0014319405   -1.2218934016
C        2.3460399107   -0.4767017191   -0.1932091255
C        2.6262662292   -1.9840075209   -0.2593615875
C        3.7137576756   -2.4466173017    0.7162067926
C        3.9768022470   -3.9564938389    0.6681241494
C        5.0665762262   -4.4082582618    1.6470304312
H        1.1502792235    0.7127655998   -3.2853607843
H        2.4969382435   -0.3999109854   -3.0101578245
H        2.5972661586    1.2671788939   -2.4284339661
H        0.5586577981   -0.7937856991   -1.3826231901
H        0.7472970954    0.8534546939   -0.8140666371
H        3.2810418017    0.0816542574   -0.3345736769
H        2.0011403289   -0.2368074772    0.8210360629
H        1.6948292973   -2.5277431917   -0.0506668959
H        2.9174358927   -2.2614277400   -1.2821539132
H        3.4292676146   -2.1613235878    1.7388822267
H        4.6479115739   -1.9093809594    0.5006173598
H        3.0436481953   -4.4929402998    0.8855825138
H        4.2608924073   -4.2413878842   -0.3536245068
H        5.2327845288   -5.4896907553    1.5919564583
H        6.0205631825   -3.9127306157    1.4319526801
H        4.7942122574   -4.1648312246    2.6807018622
23   
torsion grid (-75,)
C        1.8823876185    0.2564857871   -2.5589123859
C        1.3105088091    0.0694163698   -1.1472849519
C        2.3398353768   -0.4378739546   -0.1238001064
C        2.6848776168   -1.9260559366   -0.2674994146
C        3.7091693691   -2.4122653152    0.7639933519
C        4.0489213822   -3.9018026505    0.6336138008
C        5.0741091226   -4.3771739754    1.6694328712
H        1.1207686536    0.6345238566   -3.2496905461
H        2.2627326521   -0.6840864262   -2.9717786754
H        2.7113025464    0.9740022168   -2.5509916031
H        0.4587590066   -0.6227035758   -1.1797337223
H        0.9092117939    1.0307607964   -0.8025821789
H        3.2568200710    0.1624788723   -0.2022432873
H        1.9515230646   -0.2690397973    0.8894589185
H        1.7634821511   -2.5171182934   -0.1711359406
H        3.0708093603   -2.1257177788   -1.2757034636
H        3.3279020678   -2.2153031333    1.7758553793
H        4.6307009919   -1.8213372745    0.6670680451
H        3.1282888338   -4.4923452304    0.7313463283
H        4.4309203153   -4.0982041631   -0.3770025077
H        5.2979677172   -5.4432503732    1.5531129845
H        6.0168810527   -3.8259243342    1.5734466935
H        4.7046004858   -4.2233183103    2.6900674161
23   
torsion grid (-60,)
C        1.9982038676    0.1565988321   -2.6204581741
C        1.4582484552    0.2205394540   -1.1857509578
C        2.4102073215   -0.3537610575   -0.1248804236
C        2.7697581052   -1.8320889543   -0.3211997012
C        3.6286418465   -2.3975722965    0.8157500745
C        4.0049902343   -3.8714255567    0.6229166593
C        4.8612781399   -4.4274401542    1.7663824967
H        1.3179005709    0.6552457783   -3.3194220500
H        2.1221039718   -0.8756629681   -2.9626802003
H        2.9744759380    0.6508817886   -2.6962190183
H        0.5001893684   -0.3145597761   -1.1366067145
H        1.2373819319    1.2647599290   -0.9311339921
H        3.3349723391    0.2404364899   -0.1113518343
H        1.9530972179   -0.2269821432    0.8655636397
H        1.8458506616   -2.4219991450   -0.4061955233
H        3.3041597974   -1.9637931839   -1.2701445484
H        3.0929805040   -2.2824512358    1.7684414714
H        4.5459489870   -1.7994535496    0.9096699867
H        3.0885580759   -4.4688166699    0.5272675646
H        4.5435870204   -3.9856351661   -0.3271984362
H        5.1150079395   -5.4805572134    1.6029052904
H        5.7998752542   -3.8693903582    1.8639887772
H        4.3340621518   -4.3562283883    2.7249629928
23   
torsion grid (-45,)
C        1.8620505709    0.0180906064   -2.5900997905
C        1.4586784271    0.2604704468   -1.1297151077
C        2.4027269406   -0.3614733482   -0.0835554255
C        2.8352932523   -1.8050140376   -0.3699736203
C        3.6804380605   -2.4090079147    0.7575183683
C        4.1385390305   -3.8449188846    0.4758405941
C        4.9833163523   -4.4392723571    1.6085572061
H        1.1960112774    0.5582137812   -3.2718115322
H        1.8124220382   -1.0429003312   -2.8524127431
H        2.8855688108    0.3611594895   -2.7857938125
H        0.4477977941   -0.1430369056   -0.9804724830
H        1.3840227094    1.3384645946   -0.9419199017
H        3.3084580575    0.2573009685   -0.0084511092
H        1.9222864903   -0.3122978735    0.9021338148
H        1.9465615182   -2.4322588404   -0.5315592446
H        3.4084078287   -1.8419010774   -1.3040512710
H        3.1063791589   -2.3893801670    1.6944031881
H        4.5620326925   -1.7753614467    0.9291460063
H        3.2578730128   -4.4780636311    0.3043189772
H        4.7140312997   -3.8638783081   -0.4592034062
H        5.2962647813   -5.4641995172    1.3810873569
H        5.8881526742   -3.8444584141    1.7799723084
H        4.4212604020   -4.4631569908    2.5495283129
23   
torsion grid (-30,)
C        1.8442826126   -0.0548409979   -2.4713896356
C        1.5582972028    0.3219312134   -1.0111974052
C        2.4244154908   -0.3968461049    0.0510654186
C        2.9032072983   -1.8080648643   -0.3143468468
C        3.7076918312   -2.4686554246    0.8111294314
C        4.2146753099   -3.8716392928    0.4567256472
C        5.0185771448   -4.5232959416    1.5876394126
H        1.2107334057    0.5291041338   -3.1480461760
H        1.6442297886   -1.1132332265   -2.6620665205
H        2.8876625857    0.1409273447   -2.7467271280
H        0.5013489870    0.0985719047   -0.8139061327
H        1.6618782271    1.4055797464   -0.8827841156
H        3.3187096944    0.2106203045    0.2490643701
H        1.8739759502   -0.4307602144    0.9993278219
H        2.0418061168   -2.4452069673   -0.5606148730
H        3.5207540127   -1.7671168966   -1.2192700048
H        3.0884935054   -2.5258531226    1.7172398072
H        4.5637250808   -1.8292847850    1.0692125095
H        3.3595190686   -4.5107270137    0.1996140450
H        4.8347546468   -3.8141163901   -0.4477414323
H        5.3675197971   -5.5233718635    1.3079253140
H        5.8990135882   -3.9221339501    1.8432514482
H        4.4126126753   -4.6232993304    2.4957771042
23   
torsion grid (-15,)
C        1.7852242737   -0.1263077668   -2.3159257697
C        1.6345770192    0.3485738300   -0.8631086249
C        2.4219333227   -0.4526355843    0.2130236298
C        2.9714920165   -1.8217322844   -0.2122338790
C        3.7378962325   -2.5220619746    0.9157889413
C        4.2875711089   -3.8969894357    0.5175886108
C        5.0600605674   -4.5855094048    1.6485443022
H        1.1852664154    0.5023550815   -2.9831517050
H        1.4472842192   -1.1590852062   -2.4428742347
H        2.8238254768   -0.0719897200   -2.6613376472
H        0.5659138374    0.3124907554   -0.6174368133
H        1.9143461277    1.4061098110   -0.8004639782
H        3.2772864443    0.1493130105    0.5475289585
H        1.7911014275   -0.5817902628    1.1005791125
H        2.1510268624   -2.4729644635   -0.5430359033
H        3.6356480728   -1.7048136838   -1.0768151833
H        3.0803410457   -2.6344054916    1.7892063277
H        4.5688766923   -1.8813193851    1.2429802121
H        3.4566506687   -4.5394685670    0.1973362060
H        4.9412156260   -3.7854316446   -0.3577313684
H        5.4392916196   -5.5651504461    1.3376665222
H        5.9178754734   -3.9810007120    1.9657363292
H        4.4215911607   -4.7382496046    2.5265808743
23   
torsion grid (0,)
C        1.7095075676   -0.2351066495   -2.1644598444
C        1.7482449747    0.3548209573   -0.7463817649
C        2.4800869422   -0.4861719184    0.3438000254
C        3.0919639842   -1.8224871957   -0.1021281561
C        3.7844059715   -2.5616334248    1.0487721376
C        4.4072899821   -3.8981914959    0.6281003214
C        5.0917113356   -4.6331047083    1.7862985906
H        1.1711991612    0.4403565923   -2.8385161021
H        1.1982518173   -1.2027697845   -2.1928767188
H        2.7135855662   -0.3782352887   -2.5765135684
H        0.7160050936    0.5349991993   -0.4251550774
H        2.2129982715    1.3459068063   -0.8038734433
H        3.2798342298    0.1194625878    0.7873815201
H        1.7828810419   -0.6924199053    1.1653614820
H        2.3139495806   -2.4706603643   -0.5245747485
H        3.8194374208   -1.6546888998   -0.9063452932
H        3.0601591066   -2.7382936075    1.8564249013
H        4.5650918848   -1.9179380373    1.4779307606
H        3.6281235977   -4.5402186618    0.1962067964
H        5.1353420876   -3.7209658985   -0.1746056812
H        5.5295746943   -5.5818455056    1.4571599847
H        5.8962495571   -4.0264800820    2.2183263293
H        4.3788746579   -4.8553340573    2.5890235592
23   
torsion grid (15,)
C        1.7054777620   -0.2750141118   -1.7702195728
C        1.9875261163    0.3577190827   -0.3994570009
C        2.6664966894   -0.5572729884    0.6596448653
C        3.3028216610   -1.8553125494    0.1424656876
C        3.9339999620   -2.6868087979    1.2651849369
C        4.5856794104   -3.9838283336    0.7710338477
C        5.2070064513   -4.8122984359    1.9012776613
H        1.2349369852    0.4577343677   -2.4350703758
H        1.0272748570   -1.1326375116   -1.6962236619
H        2.6236170148   -0.6193956661   -2.2553648045
H        1.0522469455    0.7525186217    0.0128039622
H        2.6261107954    1.2334438582   -0.5698019632
H        3.4245568987    0.0196502295    1.2026768908
H        1.9199951845   -0.8411940490    1.4132973291
H        2.5474448676   -2.4622824777   -0.3706293317
H        4.0724271714   -1.6271625250   -0.6074333782
H        3.1660916035   -2.9300679099    2.0130315146
H        4.6861274164   -2.0810220719    1.7897650354
H        3.8350231056   -4.5876753085    0.2440004760
H        5.3570248485   -3.7405645488    0.0283237693
H        5.6661882255   -5.7310760280    1.5202833026
H        5.9838145965   -4.2439340821    2.4261102910
H        4.4512667342   -5.0992738660    2.6418121056
23   
torsion grid (30,)
C        1.5599740920   -0.3060075141   -1.8726700317
C        1.9858247230    0.3792801264   -0.5669357339
C        2.5561262667   -0.5542110484    0.5278281611
C        3.2831609171   -1.8099927247    0.0290784751
C        3.8638691576   -2.6496107797    1.1727931215
C        4.5753781001   -3.9214166165    0.6960724490
C        5.1551891135   -4.7523967375    1.8463631319
H        1.1383541575    0.4269556308   -2.5692617744
H        0.7958526770   -1.0736408365   -1.7004986791
H        2.4065311267   -0.7870599727   -2.3711589168
H        1.1407874273    0.9413516755   -0.1528203539
H        2.7463374701    1.1296106731   -0.8210907321
H        3.2252034399    0.0224208643    1.1783322239
H        1.7313745614   -0.8885773901    1.1727941161
H        2.5933382898   -2.4299001487   -0.5555572490
H        4.0952757204   -1.5270868284   -0.6557853211
H        3.0573038367   -2.9250744040    1.8668853474
H        4.5675775274   -2.0375007623    1.7540270300
H        3.8707060676   -4.5352276530    0.1194103758
H        5.3796689095   -3.6466241089    0.0007749656
H        5.6566691249   -5.6539394501    1.4777285371
H        5.8883852074   -4.1739873589    2.4206172394
H        4.3679556840   -5.0688039832    2.5406662753
23   
torsion grid (45,)
C        4.2972623036   -1.0287956219   -2.5413176812
C        3.8970990609   -0.1083598525   -1.3810255690
C        2.7026730745   -0.6069914215   -0.5429746675
C        2.7318900587   -2.0940200976   -0.1580555855
C        3.9164266903   -2.4896955895    0.7325502355
C        3.9074161223   -3.9705293861    1.1296781767
C        5.0914612855   -4.3616237280    2.0211887928
H        5.0903922908   -0.5723957688   -3.1434666397
H        3.4482273228   -1.2271842069   -3.2068279690
H        4.6696103654   -1.9941484733   -2.1850531256
H        3.6576465693    0.8887397120   -1.7697569149
H        4.7692229117    0.0269676667   -0.7284986404
H        2.6258233009    0.0041385641    0.3657210660
H        1.7798731255   -0.4242202413   -1.1105637362
H        1.7984860274   -2.3359299473    0.3673509723
H        2.7338528648   -2.7120771007   -1.0642510367
H        3.9082178219   -1.8700156326    1.6404955547
H        4.8614070826   -2.2634526686    0.2217674845
H        2.9666455496   -4.2005110594    1.6473047002
H        3.9134024143   -4.5872620455    0.2209994280
H        5.0603500768   -5.4238163544    2.2875657505
H        6.0456725157   -4.1722867522    1.5156101695
H        5.0916329102   -3.7838459959    2.9528982658
23   
torsion grid (60,)
C        0.6887873284    0.5439591650   -0.9394125866
C        1.8277106470   -0.0269005168   -1.7943855331
C        2.9868702743   -0.6286357644   -0.9846015707
C        2.5902758018   -1.7933066015   -0.0683466676
C        3.7892298541   -2.4387700875    0.6359293809
C        3.4025283378   -3.5955024456    1.5651745118
C        4.6088115030   -4.2359951031    2.2612687003
H       -0.0657291607    1.0330459569   -1.5651223239
H        1.0656263678    1.2892809445   -0.2283237836
H        0.1820028798   -0.2367687529   -0.3635097094
H        2.2249025451    0.7665445491   -2.4399048928
H        1.4232816222   -0.7943894174   -2.4681986233
H        3.7633924711   -0.9719932827   -1.6811088807
H        3.4507209011    0.1618900625   -0.3776762725
H        1.8769958087   -1.4463487014    0.6894661722
H        2.0623124309   -2.5558862303   -0.6587250594
H        4.3251794991   -1.6735434169    1.2148975400
H        4.5015126638   -2.8025867668   -0.1177929699
H        2.6943897790   -3.2307023934    2.3210238856
H        2.8647973609   -4.3589110273    0.9873105607
H        4.3038640648   -5.0579664029    2.9181775427
H        5.3184522168   -4.6394747434    1.5294787873
H        5.1470654129   -3.5023278558    2.8727653153
23   
torsion grid (75,)
C        0.7594360665    0.7073698636   -0.9201330288
C        1.7594820488   -0.0807783033   -1.7765842061
C        2.9433194551   -0.6522997963   -0.9790877181
C        2.5897952911   -1.8760228534   -0.1235540188
C        3.7839286662   -2.4314540252    0.6608156642
C        3.4403327587   -3.6628925215    1.5073704183
C        4.6409842965   -4.2092780898    2.2882736692
H       -0.0563797462    1.1097129984   -1.5306573657
H        1.2525165457    1.5515414017   -0.4239297679
H        0.3094727688    0.0823450916   -0.1412439545
H        2.1452084557    0.5817361716   -2.5616578588
H        1.2417170846   -0.8985882845   -2.2949549432
H        3.7419988843   -0.9371917385   -1.6768890750
H        3.3649556933    0.1354001754   -0.3393743612
H        1.7870869822   -1.6215894375    0.5808551995
H        2.1855091107   -2.6628785400   -0.7754645624
H        4.1869495502   -1.6447133489    1.3138174447
H        4.5915939039   -2.6875054875   -0.0392777648
H        2.6338233343   -3.4067099022    2.2071990198
H        3.0388746907   -4.4495061398    0.8547425437
H        4.3672782114   -5.0875584845    2.8831449987
H        5.4511975181   -4.5042723071    1.6111914910
H        5.0427255352   -3.4539905642    2.9738754922
23   
torsion grid (90,)
C        0.8030137299    0.8563556174   -0.9657797369
C        1.6713137916   -0.1358764097   -1.7507136720
C        2.8665791991   -0.6720668460   -0.9377612958
C        2.5451593542   -1.9488006413   -0.1493996540
C        3.7116088180   -2.4450232257    0.7117265441
C        3.3993388075   -3.7344715310    1.4805193044
C        4.5722666355   -4.2214683633    2.3390237769
H       -0.0587843312    1.1902845042   -1.5541815319
H        1.3828127030    1.7437850405   -0.6876337506
H        0.4189888071    0.4093043138   -0.0412109392
H        2.0382138730    0.3653060332   -2.6548600264
H        1.0580895109   -0.9769396882   -2.0981059371
H        3.7046019544   -0.8885632192   -1.6130729216
H        3.2243377707    0.1077674514   -0.2523114470
H        1.6703267374   -1.7762778249    0.4930566024
H        2.2525785002   -2.7378363422   -0.8555130821
H        3.9974472184   -1.6588414547    1.4244396913
H        4.5907416689   -2.6087614613    0.0725806105
H        2.5209849204   -3.5707863219    2.1189110386
H        3.1157362170   -4.5203428819    0.7679075822
H        4.3218550965   -5.1432048230    2.8755409218
H        5.4555812104   -4.4240717050    1.7220773901
H        4.8558137466   -3.4685261204    3.0837225997
23   
torsion grid (105,)
C        0.8513253173    0.9507952536   -1.0431468836
C        1.5761644788   -0.2289287049   -1.7040337218
C        2.7859260288   -0.7362476191   -0.8842380042
C        2.5155259160   -2.0584869465   -0.1542549379
C        3.6905543628   -2.5344018723    0.7062900002
C        3.4247425497   -3.8631893679    1.4239193580
C        4.6064505108   -4.3299238156    2.2816253837
H       -0.0228702025    1.2647275886   -1.6244923767
H        1.5185426032    1.8149075779   -0.9475414634
H        0.5044380574    0.6884090819   -0.0362724136
H        1.9053331024    0.0798327868   -2.7033177818
H        0.8691276213   -1.0525323697   -1.8625246334
H        3.6532469975   -0.8762778461   -1.5417630558
H        3.0840374166    0.0282507451   -0.1549599486
H        1.6232355276   -1.9489277187    0.4786595742
H        2.2691531066   -2.8317228804   -0.8946674556
H        3.9315834450   -1.7627674610    1.4508211367
H        4.5848366901   -2.6364019650    0.0753919209
H        2.5318207034   -3.7607624543    2.0548128804
H        3.1850573108   -4.6342255412    0.6796844001
H        4.3891822335   -5.2800325096    2.7818679054
H        5.5055656364   -4.4725142560    1.6707499058
H        4.8475878919   -3.5925557647    3.0562463796
23   
torsion grid (120,)
C        0.9774739975    0.9994101017   -1.2447410822
C        1.6025906204   -0.3297017937   -1.6870441102
C        2.8521351185   -0.7247025871   -0.8609804487
C        2.7036743099   -2.0637648420   -0.1273024510
C        3.9309554392   -2.4434983522    0.7076695240
C        3.7813448434   -3.7813691384    1.4418635846
C        5.0140704817   -4.1507985471    2.2748329248
H        0.0878542367    1.2435896585   -1.8361772282
H        1.6893571390    1.8257931800   -1.3542055753
H        0.6779725280    0.9594432712   -0.1906275545
H        1.8574021809   -0.2699659777   -2.7515307144
H        0.8477367653   -1.1217013526   -1.6059468763
H        3.7364434234   -0.7702307694   -1.5086670131
H        3.0656141246    0.0593756282   -0.1226494336
H        1.8192396201   -2.0202686121    0.5239720876
H        2.5018855265   -2.8573577093   -0.8600860835
H        4.1319112414   -1.6490559940    1.4401220980
H        4.8150226029   -2.4852136377    0.0559732202
H        2.8982261153   -3.7394033679    2.0931451842
H        3.5824333979   -4.5751852510    0.7096877689
H        4.8799377985   -5.1097422888    2.7872684076
H        5.9070205086   -4.2316950483    1.6439575630
H        5.2171882366   -3.3903044198    3.0379194524
23   
torsion grid (135,)
C        1.0804560234    1.0510609820   -1.3220608386
C        1.5828301697   -0.3789615899   -1.5555586929
C        2.8249777197   -0.7389007264   -0.7080703583
C        2.7364892646   -2.1181772238   -0.0432207622
C        3.9748218532   -2.4788875440    0.7840762774
C        3.8802040708   -3.8519627519    1.4600229452
C        5.1234097646   -4.2021142632    2.2857192976
H        0.2049673577    1.2768732800   -1.9411774955
H        1.8559335844    1.7892075711   -1.5589228333
H        0.7965348060    1.1962496339   -0.2732541905
H        1.7960576502   -0.5287610630   -2.6204987182
H        0.7694579205   -1.0752383882   -1.3140431900
H        3.7325102303   -0.6831565846   -1.3222143014
H        2.9543336710    0.0141520875    0.0811035985
H        1.8466783479   -2.1457362822    0.6009563602
H        2.5772251266   -2.8861861769   -0.8132605360
H        4.1362304028   -1.7082487703    1.5510109935
H        4.8635594128   -2.4540482485    0.1380406039
H        2.9924857553   -3.8764260194    2.1059350039
H        3.7204662594   -4.6218025091    0.6934623264
H        5.0286534110   -5.1866597661    2.7567172587
H        6.0224193270   -4.2174656560    1.6584636490
H        5.2889401193   -3.4662183854    3.0813114303
23   
torsion grid (150,)
C        1.1104201769    1.1115792628   -1.4575918614
C        1.4926977277   -0.3732617797   -1.4685224305
C        2.7225281741   -0.6921376421   -0.5975475374
C        2.7036809532   -2.1062123138   -0.0047245671
C        3.9461782755   -2.4363781356    0.8294913822
C        3.9144361694   -3.8408860869    1.4440605470
C        5.1625016007   -4.1621394320    2.2741441813
H        0.2462166250    1.3094519590   -2.1014291400
H        1.9377514195    1.7400217668   -1.8086467474
H        0.8553872362    1.4389584455   -0.4431927465
H        1.6658998925   -0.7115015227   -2.4975104397
H        0.6362228817   -0.9543334498   -1.1016317428
H        3.6422455367   -0.5402461270   -1.1773410274
H        2.7697984675    0.0271502674    0.2319864223
H        1.8059307312   -2.2178442429    0.6186156214
H        2.6041307576   -2.8430393749   -0.8144475919
H        4.0531308961   -1.6927039808    1.6317561612
H        4.8427934297   -2.3361580057    0.2019899004
H        3.0202022244   -3.9396199671    2.0737004109
H        3.8060684316   -4.5836054436    0.6425359411
H        5.1122399493   -5.1695487339    2.7016479555
H        6.0697397821   -4.1046766550    1.6613474427
H        5.2787584971   -3.4535944504    3.1026116414
23   
torsion grid (165,)
C        1.2472082585    1.0246899924   -1.7184707605
C        1.4889836769   -0.4715915464   -1.4883660780
C        2.6880155903   -0.7550836547   -0.5724604260
C        2.7260954901   -2.1929381880   -0.0419879234
C        3.9412409865   -2.4844418417    0.8456043679
C        3.9707451748   -3.9173778971    1.3906765949
C        5.1905799045   -4.1989165943    2.2753066268
H        0.3981263145    1.1962774729   -2.3892024657
H        2.1259031020    1.5060802956   -2.1641649483
H        1.0354305362    1.5362255387   -0.7725171063
H        1.6322519856   -0.9813748161   -2.4497657912
H        0.5871943090   -0.9125265672   -1.0426938344
H        3.6209368649   -0.5295036475   -1.1067020807
H        2.6556761071   -0.0655402399    0.2829527666
H        1.8060360110   -2.3896879103    0.5252890098
H        2.7176315316   -2.8957316734   -0.8871023683
H        3.9546735205   -1.7770551905    1.6866895800
H        4.8616360559   -2.2951551335    0.2757190047
H        3.0522295965   -4.1055172442    1.9623344112
H        3.9565030415   -4.6240211085    0.5502716014
H        5.1855878315   -5.2281026835    2.6506838809
H        6.1238755802   -4.0511264886    1.7194063963
H        5.2131649966   -3.5278384383    3.1419387927
23   
torsion grid (180,)
C        1.3757167299    0.9810901344   -1.9075563313
C        1.4557533147   -0.4785812024   -1.4463003445
C        2.6519967621   -0.7537540975   -0.5274070782
C        2.7415900377   -2.2109785179   -0.0603455908
C        3.9377883230   -2.4849034831    0.8582136467
C        4.0283312764   -3.9422714458    1.3261500750
C        5.2276515746   -4.2052147800    2.2439161730
H        0.5131165821    1.1489706539   -2.5616919836
H        2.2762074167    1.2697362475   -2.4622668500
H        1.2831617723    1.6608108437   -1.0523852424
H        1.5144408851   -1.1372921536   -2.3229401698
H        0.5287518473   -0.7491412422   -0.9235129206
H        3.5797131487   -0.4819866345   -1.0502052116
H        2.5937524902   -0.0939381913    0.3495665541
H        1.8136108486   -2.4820679953    0.4620874451
H        2.7996602671   -2.8700925616   -0.9377092749
H        3.8803445787   -1.8260816943    1.7359873238
H        4.8663036895   -2.2142613540    0.3362513915
H        3.1009326003   -4.2123707858    1.8484710818
H        4.0867124298   -4.6004464491    0.4490875101
H        5.2676661203   -5.2526099769    2.5625356966
H        6.1714524134   -3.9747737297    1.7359388691
H        5.1782959720   -3.5838391265    3.1457810198
