
  -OEChem-12122420533D

 30 31  0     1  0  0  0  0  0999 V2000
    0.2567    2.5234   -0.9652 C   0  0  0  0  0  0  0  0  0  0  0  0
   -0.7894    2.5683   -0.0349 C   0  0  0  0  0  0  0  0  0  0  0  0
    0.8935    1.3130   -1.2464 C   0  0  0  0  0  0  0  0  0  0  0  0
   -1.2052    1.4117    0.6328 C   0  0  0  0  0  0  0  0  0  0  0  0
    0.4680    0.1620   -0.5837 C   0  0  0  0  0  0  0  0  0  0  0  0
   -0.5667    0.2074    0.3575 C   0  0  0  0  0  0  0  0  0  0  0  0
    0.8232   -2.1589   -0.0749 C   0  0  0  0  0  0  0  0  0  0  0  0
    0.0631   -1.8985    1.2122 C   0  0  1  0  0  0  0  0  0  0  0  0
    1.5798    1.1876    4.4224 C   0  0  0  0  0  0  0  0  0  0  0  0
    1.0353   -1.4329    2.3136 C   0  0  0  0  0  0  0  0  0  0  0  0
    0.3076   -1.1738    3.6399 C   0  0  0  0  0  0  0  0  0  0  0  0
    1.0327   -1.1187   -0.8644 N   0  0  0  0  0  0  0  0  0  0  0  0
    1.2803   -3.3780   -0.3466 N   0  3  0  0  0  0  0  0  0  0  0  0
   -0.9849   -0.9633    0.9562 O   0  0  0  0  0  0  0  0  0  0  0  0
    1.4268   -0.5569    4.9424 S   0  0  0  0  0  0  0  0  0  0  0  0
    0.5754    3.4278   -1.4728 H   0  0  0  0  0  0  0  0  0  0  0  0
   -1.2832    3.5116    0.1769 H   0  0  0  0  0  0  0  0  0  0  0  0
    1.7034    1.2674   -1.9707 H   0  0  0  0  0  0  0  0  0  0  0  0
   -2.0167    1.4293    1.3536 H   0  0  0  0  0  0  0  0  0  0  0  0
   -0.4482   -2.8151    1.5174 H   0  0  0  0  0  0  0  0  0  0  0  0
    2.1888    1.6851    5.1802 H   0  0  0  0  0  0  0  0  0  0  0  0
    0.5991    1.6698    4.3896 H   0  0  0  0  0  0  0  0  0  0  0  0
    2.0805    1.2907    3.4560 H   0  0  0  0  0  0  0  0  0  0  0  0
    1.5501   -0.5265    1.9807 H   0  0  0  0  0  0  0  0  0  0  0  0
    1.8026   -2.2004    2.4600 H   0  0  0  0  0  0  0  0  0  0  0  0
   -0.5158   -0.4680    3.5026 H   0  0  0  0  0  0  0  0  0  0  0  0
   -0.1205   -2.1037    4.0272 H   0  0  0  0  0  0  0  0  0  0  0  0
    1.5655   -1.2199   -1.7255 H   0  0  0  0  0  0  0  0  0  0  0  0
    1.8331   -3.5933   -1.1711 H   0  0  0  0  0  0  0  0  0  0  0  0
    1.0842   -4.1468    0.2847 H   0  0  0  0  0  0  0  0  0  0  0  0
  1  2  1  0  0  0  0
  1  3  2  0  0  0  0
  1 16  1  0  0  0  0
  2  4  2  0  0  0  0
  2 17  1  0  0  0  0
  3  5  1  0  0  0  0
  3 18  1  0  0  0  0
  4  6  1  0  0  0  0
  4 19  1  0  0  0  0
  5  6  2  0  0  0  0
  5 12  1  0  0  0  0
  6 14  1  0  0  0  0
  7  8  1  0  0  0  0
  7 12  1  0  0  0  0
  7 13  2  0  0  0  0
  8 10  1  0  0  0  0
  8 14  1  0  0  0  0
  8 20  1  0  0  0  0
  9 15  1  0  0  0  0
  9 21  1  0  0  0  0
  9 22  1  0  0  0  0
  9 23  1  0  0  0  0
 10 11  1  0  0  0  0
 10 24  1  0  0  0  0
 10 25  1  0  0  0  0
 11 15  1  0  0  0  0
 11 26  1  0  0  0  0
 11 27  1  0  0  0  0
 12 28  1  0  0  0  0
 13 29  1  0  0  0  0
 13 30  1  0  0  0  0
M  CHG  1  13   1
M  END
$$$$
