24   
torsion grid (-165,)
C       -0.4192786794    0.7299488885    2.9343441763
C       -0.4997026806   -0.2576677656    1.7547846662
C       -1.8517949151   -0.9990189164    1.7440588340
C       -0.2198751635    0.4091707296    0.4110968976
C       -0.9464448611    1.7231739408    0.1927984010
C        0.5967672383   -0.1329453991   -0.5174428671
C        0.9361883828    0.5376075944   -1.8335279392
C        1.2773309604   -1.4797447985   -0.3748178036
H        0.5351745869    1.2676605252    2.9353904206
H       -1.2236210963    1.4725964616    2.9080418942
H       -0.5035480150    0.1891455946    3.8832936140
H        0.2762330235   -1.0041567797    1.9402359600
H       -1.8113323114   -1.8727366626    1.0852906491
H       -2.1084013383   -1.3537488227    2.7496040374
H       -2.6674469902   -0.3522477796    1.4033214199
H       -0.4329440649    2.5579863214    0.6866201872
H       -1.9545790329    1.6829409271    0.6191355147
H       -1.0577539538    1.9772688497   -0.8619978400
H        2.0100595107    0.4389768367   -2.0362437818
H        0.4170359966    0.0500869548   -2.6702879220
H        0.6969797975    1.6012802282   -1.8607582741
H        1.1858580172   -2.0418731049   -1.3127851007
H        2.3535259261   -1.3599885159   -0.1895098534
H        0.8666513529   -2.1048215808    0.4186937836
24   
torsion grid (-150,)
C       -0.3762439443    0.7423831797    2.7764983402
C       -0.4747751474   -0.2570294924    1.6078558445
C       -1.8336735862   -0.9953707277    1.6116847040
C       -0.1939057288    0.3872791933    0.2543858217
C       -0.9200209516    1.6987827226    0.0201385135
C        0.6204947542   -0.1693261163   -0.6674474489
C        0.9562927676    0.4810480867   -1.9944614320
C        1.3013179850   -1.5137308487   -0.5065915554
H        0.5809449903    1.2751766249    2.7609964772
H       -1.1770838946    1.4891904376    2.7532253511
H       -0.4518600853    0.2099816700    3.7307112063
H        0.2987862313   -1.0033756790    1.8018938306
H       -1.7332575380   -1.9993473565    1.1865690887
H       -2.2067372008   -1.1205249441    2.6354537642
H       -2.5985202626   -0.4548354242    1.0453559625
H       -0.4003870167    2.5402256904    0.4959047551
H       -1.9240238830    1.6672933599    0.4572307521
H       -1.0407631964    1.9362431422   -1.0375476964
H        2.0313671751    0.3885391885   -2.1938793963
H        0.4429880064   -0.0260484923   -2.8231308211
H        0.7074724429    1.5418064741   -2.0409136128
H        1.1950126185   -2.0955926287   -1.4309255382
H        2.3803052714   -1.3915902357   -0.3402219085
H        0.9018335591   -2.1210647147    0.3061586293
24   
torsion grid (-135,)
C       -0.3714321889    0.6586085956    2.9963097625
C       -0.5290478266   -0.3126365238    1.8098789158
C       -1.9164630952   -1.0100939379    1.8274758914
C       -0.2536650513    0.3597935604    0.4701551936
C       -0.9978274921    1.6664430999    0.2622076117
C        0.5744953279   -0.1605955686   -0.4604375875
C        0.9021566113    0.5305888728   -1.7688403053
C        1.2804659758   -1.4952969210   -0.3318191169
H        0.6070041724    1.1512108045    2.9753939551
H       -1.1410055868    1.4378758407    2.9982372473
H       -0.4556199227    0.1117074981    3.9416920256
H        0.2268132647   -1.0838265836    1.9687018280
H       -1.8189162136   -2.0828255306    1.6325192996
H       -2.3977684892   -0.9117771946    2.8075579966
H       -2.5996136982   -0.5913022282    1.0828101528
H       -0.4698705434    2.5110300335    0.7230864129
H       -1.9871655482    1.6256067593    0.7305897277
H       -1.1532190334    1.9053012221   -0.7909039062
H        1.9797945719    0.4662475592   -1.9655113032
H        0.4033551699    0.0341836185   -2.6127301454
H        0.6306645697    1.5866265222   -1.7888737543
H        1.1874564289   -2.0554125462   -1.2709317998
H        2.3565197678   -1.3569740754   -0.1593306858
H        0.8906840570   -2.1305381617    0.4641789774
24   
torsion grid (-120,)
C       -0.4319130921    0.5792686854    3.1939895322
C       -0.6570208417   -0.3779963582    2.0063827070
C       -2.0944954787   -0.9764249870    2.0271421857
C       -0.3441066529    0.3004182110    0.6791126776
C       -1.1035284805    1.5961225774    0.4465873717
C        0.5349199721   -0.1899469151   -0.2205503815
C        0.8909963255    0.5275742339   -1.5073345319
C        1.2773707595   -1.5029887188   -0.0791155641
H        0.5860977222    0.9840137561    3.1858012391
H       -1.1309486687    1.4219904767    3.1777984038
H       -0.5791221765    0.0484703443    4.1412996359
H        0.0470920567   -1.1983750463    2.1497925120
H       -2.0647337634   -2.0682876755    2.0983857788
H       -2.6752716434   -0.6109874615    2.8811602069
H       -2.6531462116   -0.7285282031    1.1199263088
H       -0.5635579443    2.4612192583    0.8522988098
H       -2.0758976191    1.5706493826    0.9490461386
H       -1.2954083153    1.7907446549   -0.6102081878
H        1.9770102672    0.5017350016   -1.6623131061
H        0.4423790618    0.0254971898   -2.3757591182
H        0.5843280036    1.5740195794   -1.5258709894
H        1.2326983016   -2.0580719277   -1.0248350422
H        2.3423133427   -1.3319806393    0.1291227399
H        0.8838146224   -2.1567222862    0.6998370494
24   
torsion grid (-105,)
C       -0.4069468009    0.3732631828    3.2529022879
C       -0.7076844282   -0.5353423739    2.0438119570
C       -2.1899934026   -1.0074078814    2.0566008808
C       -0.3475094508    0.1688997505    0.7427600709
C       -1.1037120438    1.4672522856    0.5037068950
C        0.5754111628   -0.2892071828   -0.1294288509
C        0.9677970786    0.4661643800   -1.3835318660
C        1.3391967055   -1.5894502761    0.0125648454
H        0.6477815599    0.6682626056    3.2706904040
H       -1.0131928261    1.2848259825    3.2318178027
H       -0.6307510179   -0.1488955393    4.1904777991
H       -0.0750457938   -1.4166799302    2.1520608916
H       -2.2644136991   -2.0543721368    2.3680493697
H       -2.8097735292   -0.4084381269    2.7319701721
H       -2.6361410978   -0.9496373005    1.0588090668
H       -0.5403529788    2.3379597822    0.8628158434
H       -2.0581353057    1.4668643695    1.0385515491
H       -1.3298643824    1.6333751888   -0.5518464312
H        2.0598334784    0.4742776810   -1.4912367165
H        0.5718617512   -0.0287192860   -2.2812439387
H        0.6311520742    1.5035102435   -1.3935823005
H        1.3370820104   -2.1288514222   -0.9433062059
H        2.3929057764   -1.3994857404    0.2580820231
H        0.9368686331   -2.2646672934    0.7683084018
24   
torsion grid (-90,)
C       -0.4964078135    0.0888354457    3.4353600183
C       -0.7998002939   -0.7525860325    2.1796050903
C       -2.3099476033   -1.0938989511    2.0996377395
C       -0.3101318369   -0.0369657147    0.9276342101
C       -0.9628449606    1.3145796976    0.6766169670
C        0.6411285359   -0.5285250970    0.1053773742
C        1.1628511090    0.2354613308   -1.0953788951
C        1.3146268272   -1.8767091251    0.2563474249
H        0.5776548149    0.2807456774    3.5307059492
H       -1.0112165371    1.0547214391    3.4036284226
H       -0.8313966321   -0.4327519461    4.3397343702
H       -0.2542796955   -1.6910543269    2.2845662464
H       -2.5215503154   -2.0371812555    2.6145797286
H       -2.9366133403   -0.3134529486    2.5433879341
H       -2.6278690361   -1.2282776426    1.0602915982
H       -0.3614641339    2.1386613228    1.0813173716
H       -1.9427107402    1.3723737901    1.1587816501
H       -1.1192459800    1.5124255254   -0.3861762134
H        2.2576091828    0.1719556844   -1.1349739814
H        0.7930714966   -0.2036572664   -2.0324223193
H        0.8970739217    1.2932478297   -1.0906427324
H        1.3418001908   -2.3902818886   -0.7133043416
H        2.3598726848   -1.7578897319    0.5725765278
H        0.8258502211   -2.5453775969    0.9654404294
24   
torsion grid (-75,)
C       -0.8024459011    0.0358955068    3.9549002761
C       -1.0045760696   -0.7820318112    2.6643935071
C       -2.4882656584   -1.1778021344    2.4956871405
C       -0.4743060221   -0.0289692905    1.4499652464
C       -1.0636023519    1.3588196349    1.2548316397
C        0.4549579095   -0.5329788501    0.6100486097
C        1.0314337483    0.2517774349   -0.5519151310
C        1.0450679762   -1.9254925307    0.7019917327
H        0.2541013691    0.2840685352    4.1026485416
H       -1.3694851055    0.9721383255    3.9331777209
H       -1.1430583387   -0.5336119399    4.8274521918
H       -0.4327770223   -1.7040021337    2.7817138340
H       -2.7513567881   -1.9883248070    3.1847738945
H       -3.1640076835   -0.3372480577    2.6855427735
H       -2.6804428203   -1.5417816735    1.4806864859
H       -0.4792006637    2.1268580074    1.7777758531
H       -2.0804662222    1.4115138202    1.6548323701
H       -1.1211368207    1.6461009540    0.2032518307
H        2.1173946437    0.1033410725   -0.6020140018
H        0.6255765932   -0.1043620369   -1.5090352834
H        0.8521418507    1.3257314925   -0.4876731479
H        1.0730622726   -2.3827384064   -0.2952939539
H        2.0848187468   -1.8890104281    1.0546496393
H        0.4935949939   -2.6033727717    1.3541263395
24   
torsion grid (-60,)
C       -0.9268562488   -0.0109074733    4.1190373672
C       -0.9972735900   -0.7633720017    2.7766515575
C       -2.4236170262   -1.2867908687    2.5163447351
C       -0.4931683922    0.0897903946    1.6162113398
C       -1.0719213871    1.4920199743    1.5585316629
C        0.3927022558   -0.3641922162    0.7039989158
C        0.9550627115    0.4899506219   -0.4147722220
C        0.9395527256   -1.7774711499    0.6689912103
H        0.0859853393    0.3592095829    4.3117647364
H       -1.6092254498    0.8447395746    4.1461027042
H       -1.2054002247   -0.6779732386    4.9426266981
H       -0.3451451853   -1.6335429864    2.8781752345
H       -2.7356945795   -1.9755351331    3.3102064876
H       -3.1530807315   -0.4701606310    2.4777234673
H       -2.4727135074   -1.8243680967    1.5636098420
H       -0.5354153201    2.1814716179    2.2229855746
H       -2.1168962650    1.4939449907    1.8854281884
H       -1.0533289277    1.9163367172    0.5537424272
H        2.0336890985    0.3138602900   -0.5122843091
H        0.5083598977    0.2190687600   -1.3814909196
H        0.8130451906    1.5608493299   -0.2647550047
H        0.9417163594   -2.1477401926   -0.3639413789
H        1.9835456137   -1.8052870209    1.0099048371
H        0.3711714329   -2.4904180117    1.2671357801
24   
torsion grid (-45,)
C       -0.8482689709    0.0791321170    4.1619336423
C       -0.8861632933   -0.6995651821    2.8333941409
C       -2.2838644408   -1.3013786996    2.5848846303
C       -0.4242277639    0.1405910064    1.6460706589
C       -1.0152698699    1.5368315632    1.5894354142
C        0.4299232782   -0.3260047212    0.7102579470
C        0.9488953176    0.5061793916   -0.4451383015
C        0.9791496160   -1.7384495425    0.6836068119
H        0.1396820081    0.5201682406    4.3337269375
H       -1.5867387834    0.8872669644    4.1895013784
H       -1.0676862350   -0.5938970209    4.9979856606
H       -0.1912971736   -1.5333767461    2.9593331949
H       -2.6763140448   -1.7747245862    3.4925721747
H       -3.0021201329   -0.5269149205    2.2920140028
H       -2.2555975542   -2.0451111485    1.7822074363
H       -0.4854377973    2.2293752288    2.2558488137
H       -2.0601008637    1.5279378271    1.9180014472
H       -1.0018027976    1.9637912749    0.5859183426
H        2.0260136508    0.3387432309   -0.5709840936
H        0.4763938580    0.2064886257   -1.3907994392
H        0.7997745983    1.5789492388   -0.3176521664
H        0.9294538363   -2.1356950513   -0.3381015075
H        2.0394516835   -1.7545669982    0.9706128932
H        0.4450843888   -2.4365816351    1.3288875926
24   
torsion grid (-30,)
C       -0.7950883497    0.1040100802    4.0071977739
C       -0.8518271977   -0.6869235162    2.6862423873
C       -2.2564969456   -1.2900951333    2.4536180914
C       -0.3914633998    0.1321650635    1.4847756580
C       -0.9808412518    1.5283000772    1.4121443796
C        0.4580441129   -0.3498169347    0.5525846960
C        0.9716788073    0.4639138760   -0.6181882305
C        1.0059719074   -1.7628083773    0.5443103610
H        0.1961915274    0.5440328459    4.1620623102
H       -1.5311071244    0.9145562063    4.0383306538
H       -1.0049864779   -0.5623584040    4.8507457446
H       -0.1582950901   -1.5202106758    2.8209130509
H       -2.7570795202   -1.5170797814    3.4018626975
H       -2.9050815943   -0.5828020239    1.9242136709
H       -2.2049559926   -2.1990373713    1.8465458373
H       -0.4444928221    2.2288809906    2.0647461975
H       -2.0228201009    1.5252685664    1.7503013071
H       -0.9752492246    1.9415605144    0.4028084644
H        2.0497271911    0.3005549131   -0.7416568184
H        0.5004817455    0.1437112217   -1.5577322302
H        0.8161965073    1.5379257515   -0.5106581535
H        0.9363684285   -2.1809512800   -0.4679205908
H        2.0716285215   -1.7736437369    0.8108713152
H        0.4842772535   -2.4470669454    1.2140733616
24   
torsion grid (-15,)
C       -0.8541711808   -0.0711163559    4.2918702934
C       -0.9577238550   -0.8117235087    2.9441697878
C       -2.3847568748   -1.3807416893    2.7188331626
C       -0.5028544970    0.0484825969    1.7710069313
C       -1.1186095956    1.4353420205    1.7369477862
C        0.3662995921   -0.3846268073    0.8330729811
C        0.8718644962    0.4811667195   -0.3035178757
C        0.9474178568   -1.7832535323    0.7819585523
H        0.1526744485    0.3334216618    4.4435242204
H       -1.5649205643    0.7590929944    4.3638508219
H       -1.0701687097   -0.7605855683    5.1151776900
H       -0.2762511047   -1.6600079001    3.0317633051
H       -2.9698334822   -1.3878708502    3.6451595086
H       -2.9466296919   -0.7708776807    2.0034095915
H       -2.3514793372   -2.3970806404    2.3151363293
H       -0.5800660884    2.1336601408    2.3902032780
H       -2.1525162805    1.4069152208    2.0978279937
H       -1.1423670907    1.8668253958    0.7352868043
H        1.9545752457    0.3474080160   -0.4216378363
H        0.4172027372    0.1832478551   -1.2584442607
H        0.6899093430    1.5467993753   -0.1599301392
H        0.8980084894   -2.1673863425   -0.2448480937
H        2.0102219946   -1.7788164805    1.0597982355
H        0.4349867132   -2.5022935396    1.4218365374
24   
torsion grid (0,)
C       -0.8355106215   -0.1557316832    4.3266440176
C       -1.0333650178   -0.8689087040    2.9739988915
C       -2.5083569934   -1.3328199852    2.7896816317
C       -0.5626730524   -0.0003344601    1.8148229356
C       -1.2045601774    1.3764337084    1.7649239421
C        0.3514319737   -0.4009251985    0.9057855533
C        0.8650732754    0.4959721752   -0.2027755624
C        0.9841104845   -1.7769557600    0.8624884975
H        0.2079541792    0.1495125059    4.4616339130
H       -1.4628861697    0.7375898764    4.4132154048
H       -1.1030546023   -0.8262230639    5.1510772423
H       -0.4063889329   -1.7603534155    3.0146041220
H       -3.1303947129   -1.0679252801    3.6516006716
H       -2.9682671064   -0.8827486708    1.9049011084
H       -2.5669998532   -2.4183329856    2.6624128475
H       -0.6338538092    2.1116621680    2.3465514680
H       -2.2111068244    1.3506481424    2.1946495200
H       -1.3015372848    1.7613466754    0.7479923962
H        1.9559506087    0.4067569758   -0.2815309071
H        0.4584375004    0.1908515538   -1.1769648106
H        0.6344549927    1.5517264971   -0.0555586785
H        0.9925385213   -2.1491175687   -0.1698716512
H        2.0332082368   -1.7380536594    1.1859613711
H        0.4724141052   -2.5224594675    1.4720191560
24   
torsion grid (15,)
C       -0.9804694830    0.2800498350    3.7674496177
C       -1.1259845469   -0.6716658222    2.5630558192
C       -2.6144450158   -1.0657951058    2.3416591167
C       -0.5120712798   -0.0516363822    1.3151433911
C       -1.1452838405    1.2664604437    0.8948139960
C        0.5197340505   -0.5949390754    0.6350443644
C        1.1590671025    0.0775930135   -0.5633854381
C        1.1778810602   -1.9195422895    0.9611385715
H        0.0718707266    0.5197736411    3.9542051972
H       -1.5183357018    1.2197647843    3.6046729545
H       -1.3907970616   -0.1812603610    4.6733850783
H       -0.5731453899   -1.5776379869    2.8124860722
H       -3.2972137036   -0.4089129965    2.8915654911
H       -2.8928961151   -1.0475202657    1.2842891238
H       -2.8013395540   -2.0808989521    2.7084755603
H       -0.6007448099    2.1276236115    1.3026569219
H       -2.1730219474    1.3402792929    1.2625275660
H       -1.1854279301    1.3857430457   -0.1901858443
H        2.2524059915    0.0313898813   -0.4815684724
H        0.8959800936   -0.4439001059   -1.4941897223
H        0.8841278925    1.1270978075   -0.6750948653
H        1.3087714458   -2.5064762583    0.0429696160
H        2.1834610549   -1.7652046939    1.3754564307
H        0.6180573134   -2.5362709614    1.6648282377
24   
torsion grid (30,)
C       -0.9334648251    0.3352644494    3.7967565253
C       -1.1195312543   -0.6042815539    2.5889583286
C       -2.6112917977   -0.9899459423    2.4208164914
C       -0.5493302050    0.0303434556    1.3272893401
C       -1.2127611153    1.3389634239    0.9230990101
C        0.4759558252   -0.4919119416    0.6211084522
C        1.0714689703    0.1959825193   -0.5912480064
C        1.1689774063   -1.8034555584    0.9268289498
H        0.1258416826    0.5598737141    3.9606890981
H       -1.4619316470    1.2831559005    3.6513011795
H       -1.3294917076   -0.1256382675    4.7094520500
H       -0.5639392554   -1.5175053273    2.8050912942
H       -3.2798320236   -0.1978292070    2.7755041942
H       -2.8597589995   -1.2251977278    1.3818319914
H       -2.8425849838   -1.8739849952    3.0261825226
H       -0.6612351225    2.2091529526    1.3014380825
H       -2.2261262009    1.4063729373    1.3285661315
H       -1.2958353064    1.4480362746   -0.1606390382
H        2.1671994126    0.1642788972   -0.5415193375
H        0.7883212416   -0.3235649040   -1.5172706824
H        0.7790181712    1.2422012831   -0.6886274448
H        1.2838876062   -2.3880128342    0.0049647096
H        2.1833464044   -1.6288562417    1.3105330476
H        0.6436741560   -2.4311133214    1.6471935554
24   
torsion grid (45,)
C       -0.9632342018    0.4418390581    3.8169991435
C       -1.0785941334   -0.5268242966    2.6240907861
C       -2.5306553078   -1.0300453885    2.4700062788
C       -0.5589557159    0.1163824702    1.3437237250
C       -1.2285426955    1.4305513663    0.9741948833
C        0.4271759323   -0.4159287064    0.5905800650
C        0.9870937497    0.2691866910   -0.6404438378
C        1.1036202685   -1.7452156980    0.8568527383
H        0.0724341775    0.7682890880    3.9599320197
H       -1.5819122208    1.3338514411    3.6749674220
H       -1.2966718519   -0.0451312879    4.7408097756
H       -0.4564552324   -1.3922514732    2.8582457422
H       -3.2555778951   -0.2136899010    2.5619810475
H       -2.6836274098   -1.5294208032    1.5084032303
H       -2.7684897043   -1.7458933357    3.2658082131
H       -0.7019068947    2.2916871330    1.4054629408
H       -2.2540139670    1.4672393607    1.3531288428
H       -1.2836352408    1.5837444968   -0.1053463244
H        2.0814625896    0.1908204514   -0.6478669984
H        0.6351671253   -0.2203672559   -1.5592174044
H        0.7357953532    1.3286118167   -0.7048333941
H        1.1876905836   -2.3124575796   -0.0789228556
H        2.1291216191   -1.5975995598    1.2219893834
H        0.5805082425   -2.3783320706    1.5740736559
24   
torsion grid (60,)
C       -0.8855033943    0.5567683161    3.5397385945
C       -0.8882940316   -0.4475644214    2.3717125724
C       -2.2723359076   -1.1094986997    2.2225253211
C       -0.4301678653    0.1934905546    1.0648013497
C       -1.1005607513    1.5148695790    0.7348465097
C        0.4929094973   -0.3703052421    0.2566502811
C        1.0087113093    0.2829878946   -1.0100698733
C        1.1324674799   -1.7231470019    0.4983949035
H        0.0969704922    1.0277429672    3.6532564865
H       -1.6258921762    1.3510003876    3.3999810864
H       -1.1261784213    0.0463384181    4.4790881284
H       -0.1791729379   -1.2332101956    2.6414341608
H       -3.0539770007   -0.3669629806    2.0261940992
H       -2.2761124918   -1.8307307517    1.3989487071
H       -2.5497744662   -1.6374949659    3.1426109421
H       -0.6206745559    2.3552413685    1.2526713324
H       -2.1477346621    1.5086776730    1.0546686572
H       -1.0966548846    1.7362926545   -0.3332775128
H        2.0976957660    0.1646313133   -1.0738638063
H        0.5915498891   -0.2025886293   -1.9031815653
H        0.7937466081    1.3503220117   -1.0738107276
H        1.1682916216   -2.2885386453   -0.4413484911
H        2.1729652071   -1.6136071505    0.8334785589
H        0.6073158374   -2.3406740013    1.2277668736
24   
torsion grid (75,)
C       -0.8067143412    0.6278930942    3.3341046226
C       -0.7777362302   -0.4147536625    2.2003679434
C       -2.1334922216   -1.1392129350    2.0786715522
C       -0.3459971217    0.1821579007    0.8640017245
C       -1.0165755329    1.4965507890    0.5106438436
C        0.5495140000   -0.4187270699    0.0515924877
C        1.0381253243    0.1808979205   -1.2516654143
C        1.1808096424   -1.7689352568    0.3267554420
H        0.1517030564    1.1525262767    3.4137011997
H       -1.5899716989    1.3787406480    3.1863176942
H       -1.0024038609    0.1347466367    4.2925587659
H       -0.0382117827   -1.1600690464    2.5027868534
H       -2.8897271217   -0.4998559521    1.6097656624
H       -2.0369376618   -2.0315818922    1.4508181369
H       -2.5091947881   -1.4497671953    3.0603104034
H       -0.5381282982    2.3452044202    1.0159389925
H       -2.0639202833    1.4947100633    0.8312002415
H       -1.0128394655    1.7011074331   -0.5606605965
H        2.1251386577    0.0563758292   -1.3350212400
H        0.5997803573   -0.3396553919   -2.1143506930
H        0.8243865230    1.2453467544   -1.3545994957
H        1.1715168338   -2.3751898880   -0.5878626318
H        2.2352878967   -1.6596714231    0.6148593979
H        0.6777892980   -2.3462107096    1.1031104722
24   
torsion grid (90,)
C       -0.8349471124    0.6097016324    3.5235850797
C       -0.8169375186   -0.3998570806    2.3595108822
C       -2.1771776582   -1.1219388031    2.2198258478
C       -0.3829025572    0.2269865171    1.0388233523
C       -1.0553814930    1.5488942085    0.7189336909
C        0.5133399699   -0.3537173566    0.2127126581
C        1.0002257468    0.2767580468   -1.0765055231
C        1.1471240475   -1.7087238691    0.4558338715
H        0.1252534431    1.1300463980    3.6106634909
H       -1.6179735307    1.3663205570    3.4055561494
H       -1.0233664091    0.0873847301    4.4677529362
H       -0.0780194927   -1.1524687398    2.6438613133
H       -2.8530559949   -0.5828853013    1.5474761506
H       -2.0364417988   -2.1136604435    1.7756902525
H       -2.6729768251   -1.2513653853    3.1879774120
H       -0.5758579178    2.3848328040    1.2439411495
H       -2.1015313091    1.5379154829    1.0437403704
H       -1.0553968679    1.7802978921   -0.3469316377
H        2.0884763641    0.1631306512   -1.1596190618
H        0.5684528991   -0.2298334668   -1.9507126672
H        0.7776353625    1.3411958527   -1.1582194691
H        1.1264798935   -2.2985421766   -0.4693433693
H        2.2050509995   -1.6047358711    0.7329105285
H        0.6532595662   -2.2995834138    1.2278218658
24   
torsion grid (105,)
C       -0.7889091105    0.5237030760    3.4506311831
C       -0.8258472640   -0.4910727944    2.2909288314
C       -2.2139245130   -1.1784066948    2.1827011500
C       -0.4002617832    0.1259200231    0.9640258221
C       -1.0945978398    1.4340986683    0.6319824209
C        0.5089192210   -0.4438053886    0.1445146293
C        0.9841445876    0.1892545108   -1.1479064169
C        1.1704497134   -1.7837853586    0.3961346694
H        0.1908517212    1.0092900124    3.5192130383
H       -1.5461839930    1.3071131625    3.3397927128
H       -0.9813224061    0.0132440154    4.4005591990
H       -0.0996352008   -1.2598275170    2.5611939287
H       -2.7942060924   -0.7908660590    1.3394511309
H       -2.0961153345   -2.2515798258    1.9973451509
H       -2.8059012730   -1.0612334972    3.0964980275
H       -0.6092903672    2.2864232733    1.1243586482
H       -2.1313940422    1.4201978878    0.9852994958
H       -1.1251391053    1.6408539763   -0.4387196626
H        2.0748245137    0.0996452254   -1.2285513437
H        0.5654656439   -0.3323628691   -2.0196709179
H        0.7376816203    1.2478921226   -1.2363809515
H        1.1620742454   -2.3796888410   -0.5253581754
H        2.2259545072   -1.6564382909    0.6726347409
H        0.6886247931   -2.3798437881    1.1717773763
24   
torsion grid (120,)
C       -0.7724092719    0.5442471192    3.1935707874
C       -0.8785369371   -0.5031549401    2.0670441825
C       -2.3196016719   -1.0850862568    1.9700608365
C       -0.4045022079    0.0618738567    0.7343444504
C       -1.1005075753    1.3472253931    0.3192594198
C        0.5540629740   -0.5152311803   -0.0210901132
C        1.0690387421    0.0890138212   -1.3122528522
C        1.2401431281   -1.8262418820    0.3047307339
H        0.2464977553    0.9397438802    3.2688538784
H       -1.4515689446    1.3880444391    3.0328192211
H       -1.0332623090    0.0915065370    4.1567652892
H       -0.2103253523   -1.3154728723    2.3552365311
H       -2.7685053541   -0.8993252460    0.9898570954
H       -2.3140761694   -2.1703248514    2.1137010385
H       -2.9858636654   -0.6578261569    2.7272247334
H       -0.5946922086    2.2320400370    0.7264483747
H       -2.1270246376    1.3713961707    0.6994073314
H       -1.1584249964    1.4672448792   -0.7640414676
H        2.1643893741    0.0303461169   -1.3421446893
H        0.7050939462   -0.4733151239   -2.1833479788
H        0.7954558699    1.1361014024   -1.4470418627
H        1.2882964458   -2.4531288646   -0.5947867788
H        2.2787273673   -1.6587227084    0.6209692224
H        0.7428889029   -2.4094317299    1.0804097325
24   
torsion grid (135,)
C       -0.5137564900    0.3577847418    2.9227446528
C       -0.7385959753   -0.6487479996    1.7765079511
C       -2.2287757666   -1.0902172158    1.7058824593
C       -0.2549245310   -0.0702893370    0.4535623073
C       -0.9519092706    1.2177640787    0.0412227631
C        0.7215817022   -0.6234054952   -0.2966325250
C        1.2348935737    0.0096593955   -1.5745492162
C        1.4336015025   -1.9223216176    0.0195243080
H        0.5434710809    0.6328957638    3.0028107583
H       -1.0920432823    1.2752556383    2.7719897866
H       -0.8268638851   -0.0746936260    3.8801867967
H       -0.1395775043   -1.5284756104    2.0134237322
H       -2.6052217682   -1.0866731151    0.6786902235
H       -2.3646573813   -2.0971016334    2.1125172640
H       -2.8746021272   -0.4179843157    2.2822037854
H       -0.3939325892    2.1045926850    0.3678245378
H       -1.9454219465    1.2862812938    0.4942649525
H       -1.0885019059    1.2938382453   -1.0397547020
H        2.3317921303   -0.0164523405   -1.5926790243
H        0.8972198592   -0.5531302430   -2.4559171847
H        0.9310424008    1.0494639020   -1.7011202087
H        1.4930304764   -2.5436275200   -0.8832961482
H        2.4691106287   -1.7344261310    0.3343126597
H        0.9521331484   -2.5194429169    0.7944838746
24   
torsion grid (150,)
C       -0.3237134814    0.5990838323    2.6236978988
C       -0.6153893865   -0.4251329692    1.5090975944
C       -2.0954163261   -0.8839585617    1.5592874566
C       -0.2428659973    0.1472139449    0.1477220990
C       -1.0075988886    1.4044479525   -0.2400482748
C        0.7016116837   -0.3844202361   -0.6572148333
C        1.1053588578    0.2449489030   -1.9757890549
C        1.4806899949   -1.6513498993   -0.3709936098
H        0.7349432310    0.8796364782    2.6331268576
H       -0.9147171062    1.5115705358    2.4934141150
H       -0.5747435156    0.1822997530    3.6062766774
H        0.0092987600   -1.2972496702    1.7060176660
H       -2.4677457905   -1.1516213252    0.5655283201
H       -2.2208245263   -1.7434508046    2.2255617461
H       -2.7468004582   -0.0864069695    1.9351938658
H       -0.4528584630    2.3150427454    0.0200564452
H       -1.9657871943    1.4581644448    0.2843491249
H       -1.2272990806    1.4470970614   -1.3091638099
H        2.1984302372    0.2480866018   -2.0719183240
H        0.7214817601   -0.3382400722   -2.8244028952
H        0.7643667731    1.2744010024   -2.0922195208
H        1.5008226443   -2.2863532755   -1.2660109133
H        2.5277541850   -1.4206042212   -0.1320765530
H        1.0768383181   -2.2513905539    0.4448945028
24   
torsion grid (165,)
C       -0.3672278763    0.7055536297    2.6155491461
C       -0.5780694482   -0.3453472437    1.5083096530
C       -2.0117997674   -0.9175456284    1.5654745097
C       -0.2501662840    0.2305036821    0.1355815161
C       -1.0115837290    1.4967710962   -0.2224114827
C        0.6517636096   -0.3198678626   -0.7050342394
C        1.0266765946    0.3004818781   -2.0365720837
C        1.4039639911   -1.6098482188   -0.4484521066
H        0.6601652799    1.0851677174    2.6077132480
H       -1.0435263895    1.5583767767    2.4980368534
H       -0.5599703460    0.2676901567    3.6018831774
H        0.1108884282   -1.1656733245    1.7166523445
H       -2.2606920827   -1.4553184170    0.6449861168
H       -2.1291383084   -1.5971277632    2.4165593905
H       -2.7547656205   -0.1200575794    1.6820952095
H       -0.4764338543    2.3991273706    0.1004797566
H       -1.9883349259    1.5180830660    0.2698110345
H       -1.1947975610    1.5869434025   -1.2947693357
H        2.1131630914    0.2497044307   -2.1806932613
H        0.5770625771   -0.2547170564   -2.8715863386
H        0.7342122317    1.3470627759   -2.1304752335
H        1.3936344207   -2.2309668068   -1.3531908173
H        2.4603388265   -1.4103791416   -0.2224706383
H        0.9953899818   -2.2124712964    0.3632164328
24   
torsion grid (180,)
C       -0.4380841447    0.6682352546    2.8341500858
C       -0.5474637843   -0.3192577004    1.6568934771
C       -1.9269064766   -1.0070581461    1.6457521281
C       -0.2448809177    0.3494583904    0.3189212718
C       -0.9688684315    1.6630977659    0.0854792908
C        0.5938772505   -0.1857299107   -0.5938144713
C        0.9584149350    0.4952160247   -1.8979727291
C        1.2777253568   -1.5303076601   -0.4450100606
H        0.5417762729    1.1577375698    2.8494300842
H       -1.2042094434    1.4488627636    2.7876870358
H       -0.5665705867    0.1395995966    3.7854044869
H        0.2014422660   -1.0937998616    1.8361222961
H       -2.0067794656   -1.7094511028    0.8096689026
H       -2.0973000442   -1.5563547662    2.5789744154
H       -2.7371676641   -0.2764234074    1.5415888419
H       -0.4501580395    2.5042263502    0.5630743791
H       -1.9752829838    1.6327850141    0.5157362252
H       -1.0836539969    1.9007210357   -0.9729527937
H        2.0357498023    0.3970016442   -2.0814472149
H        0.4543973796    0.0156497364   -2.7485239865
H        0.7208591096    1.5594291445   -1.9202611566
H        1.2216972181   -2.0806314836   -1.3926675895
H        2.3462478422   -1.4071066799   -0.2214015601
H        0.8439719413   -2.1681773932    0.3257650904
