24   
torsion grid (-165,)
C        1.1564013978    2.8429071898    4.2029163713
C        2.6105240485    1.9236524263    2.7722747218
C        2.2352662013    3.6652105119    4.0027677421
C        2.5733914093   -1.1359525283    4.4060759084
C        0.9901568671   -0.1495947533    6.0381748508
C        2.5285767539    5.0293470446    4.5520459363
N        3.1289940036    3.0799405940    3.1101240148
N        1.3914439375    1.7226196595    3.3992788026
N        1.2071284821   -0.6610485961    4.6748574517
O       -0.8294653549    0.6020317994    3.8871944484
O        0.8039580050   -0.4240690015    2.1938273685
O        2.7212410136    5.9937585742    3.5167729389
S        0.5051378040    0.2296457893    3.4550310500
H        0.2431722108    2.9453078209    4.7696779428
H        3.0158158444    1.2054411657    2.0724279581
H        2.6254384686   -1.5513186037    3.4004755217
H        3.3182224418   -0.3362563113    4.5209640482
H        2.7925020896   -1.9306466522    5.1228663179
H       -0.0583678850    0.1157315476    6.1663339011
H        1.2340613298   -0.9559172239    6.7337397233
H        1.6259536955    0.7187156800    6.2581796122
H        1.6918801161    5.3827238383    5.1593675270
H        3.4194730185    4.9780706400    5.1955268323
H        3.3369657846    5.5973968166    2.8772554161
24   
torsion grid (-150,)
C        1.2783852446    2.7923984097    4.2752181509
C        2.5584366863    1.9889555556    2.6241371629
C        2.2824868871    3.6713646075    3.9601442799
C        2.5923536643   -1.1043575402    4.4806284701
C        0.8835659234   -0.2053749006    6.0349704463
C        2.5927941990    5.0289122149    4.5172953275
N        3.0678897643    3.1577056248    2.9327008339
N        1.4588851310    1.7040272614    3.4158415090
N        1.1980892344   -0.6755599310    4.6760828661
O       -0.7997703766    0.5910294754    3.7888044451
O        0.9155846321   -0.4257871668    2.1795615446
O        2.6343052225    6.0275885157    3.4981648480
S        0.5564755171    0.2207052032    3.4291397502
H        0.4415432207    2.8433168715    4.9554297978
H        2.8963919452    1.3077641175    1.8552548267
H        2.7116276674   -1.5174030852    3.4798169494
H        3.3014870279   -0.2787533873    4.6323655866
H        2.8001334241   -1.8906914604    5.2097414842
H       -0.1702246689    0.0638062992    6.0939498747
H        1.0701870635   -1.0350987814    6.7208538205
H        1.5071723821    0.6495778744    6.3291724435
H        1.8203066524    5.3341859881    5.2273097480
H        3.5527339032    4.9915541252    5.0536307005
H        3.1738519306    5.6653031955    2.7749156644
24   
torsion grid (-135,)
C        1.4168444321    2.7393412633    4.3640969931
C        2.4903411958    2.0617814652    2.5213552683
C        2.3207402420    3.6822515198    3.9482917705
C        2.6015994956   -1.0935535937    4.5954473622
C        0.7885899870   -0.2525694256    6.0653636984
C        2.6433848445    5.0336552620    4.5138104125
N        2.9790463566    3.2458371712    2.8031044366
N        1.5397699936    1.6837726234    3.4544408954
N        1.1944589050   -0.6800217060    4.7172652529
O       -0.7570071286    0.5936465707    3.7377045563
O        1.0160300305   -0.4395906824    2.2107189532
O        2.5259280598    6.0628909321    3.5322958260
S        0.6124118140    0.2139765819    3.4434258742
H        0.6790253066    2.7302450486    5.1519831722
H        2.7543571602    1.4218121743    1.6908140230
H        2.7816604394   -1.4907980995    3.5972737254
H        3.2912068513   -0.2625469329    4.7976743302
H        2.7759246955   -1.8885136959    5.3240078977
H       -0.2612836327    0.0375096339    6.0571280109
H        0.9078058349   -1.1101488506    6.7320241651
H        1.4061131800    0.5759397337    6.4371403028
H        1.9497694436    5.2840938884    5.3203156616
H        3.6609345393    5.0201097598    4.9322066784
H        2.9787042255    5.7397165382    2.7346539253
24   
torsion grid (-120,)
C        1.5788925809    2.6791530135    4.4084311902
C        2.4199829057    2.1353284738    2.4085191209
C        2.3680325992    3.6865264135    3.9185450307
C        2.6064072747   -1.0927991628    4.6911008146
C        0.6898354844   -0.2919870781    6.0570716973
C        2.7023218892    5.0286863523    4.4992071887
N        2.8836965303    3.3321376205    2.6759258795
N        1.6388222701    1.6612190402    3.4498902335
N        1.1975077698   -0.6716885218    4.7302652690
O       -0.6977738915    0.6033357092    3.6507003145
O        1.1243514157   -0.4640379758    2.2154903909
O        2.4062322216    6.0886161620    3.5908389133
S        0.6806447343    0.2082217735    3.4247953120
H        0.9639996720    2.6010052941    5.2919008350
H        2.6028936118    1.5416024485    1.5236218488
H        2.8494515030   -1.4680727074    3.6977004992
H        3.2846432612   -0.2706435620    4.9562090048
H        2.7287508685   -1.9059372330    5.4103303665
H       -0.3437720633    0.0411269609    5.9730847043
H        0.7184667011   -1.1826684946    6.6899000238
H        1.3023539554    0.4921394581    6.5211355510
H        2.1132093219    5.2106854650    5.4015128495
H        3.7665290078    5.0508272989    4.7775964134
H        2.7648569099    5.8230085287    2.7267804681
24   
torsion grid (-105,)
C        1.2000776928    3.3942091303    3.7805295346
C        2.6770375402    1.7087475016    3.8106067235
C        2.4203655870    3.8176791921    4.2335581016
C       -2.3819452877    1.1769741411    2.8101276371
C       -1.1187000688    0.7888526005    4.9102270842
C        2.8589699758    5.1680220809    4.7140995878
N        3.3261039499    2.7578650616    4.2474981652
N        1.3542360471    2.0261649154    3.5308204134
N       -1.1200402748    1.3643350371    3.5533097976
O        0.0701919216    1.5395427310    1.3260662582
O        0.7725564961   -0.3303545875    2.8872658951
O        3.3462298757    5.1241047861    6.0571708912
S        0.2608749909    1.0195367422    2.6706826445
H        0.2529842089    3.8907421366    3.6346508766
H        3.0566712723    0.7040834909    3.6837499174
H       -2.3024883216    1.6483410879    1.8315124424
H       -2.6418827957    0.1174155625    2.6912041414
H       -3.1682686211    1.6761622183    3.3812229019
H       -0.1851660104    1.0374673115    5.4174597064
H       -1.9409892771    1.2500544153    5.4619936588
H       -1.2475560890   -0.2999538391    4.8988238159
H        3.6332707518    5.5594478309    4.0387825063
H        2.0189194487    5.8663064682    4.7085835772
H        4.0019749941    4.4071954096    6.0911964883
24   
torsion grid (-90,)
C        1.1652584430    3.3144151845    3.9364696838
C        2.7328959277    1.7272377588    3.7375646209
C        2.4052143760    3.8077283218    4.2389445140
C       -2.3504954874    1.2363186191    2.7691200007
C       -1.2190290381    0.7572747625    4.9280528126
C        2.8188112638    5.1745625180    4.6942675540
N        3.3689016855    2.8075485883    4.1112731167
N        1.3645618168    1.9572722742    3.6515944968
N       -1.1212708072    1.3454345900    3.5794552312
O        0.1770269072    1.4163349932    1.3980349636
O        0.7587296906   -0.4081142401    3.0524680383
O        3.4747185060    5.1396305399    5.9636742936
S        0.2872776788    0.9439950056    2.7695548226
H        0.1785961739    3.7512082305    3.9239509808
H        3.1563170456    0.7516269225    3.5400298490
H       -2.1946832933    1.7146895333    1.8032761743
H       -2.6594505704    0.1939933774    2.6199022690
H       -3.1381791469    1.7692814839    3.3069221146
H       -0.2972993908    0.9435684189    5.4813494626
H       -2.0385693416    1.2606455790    5.4462214851
H       -1.4099499721   -0.3217306093    4.8957997067
H        3.4756150429    5.6251575256    3.9362498971
H        1.9440978413    5.8184067770    4.8115620014
H        4.1685195536    4.4616802066    5.8992905114
24   
torsion grid (-75,)
C        1.1554584992    3.2371982028    4.0735569771
C        2.7898109967    1.7805422537    3.6145317272
C        2.3856031439    3.8107790023    4.2424882613
C       -2.2829577005    1.3553792387    2.6889887880
C       -1.3089823780    0.7565619364    4.8996126343
C        2.7565804078    5.1873615195    4.7042210232
N        3.3927882992    2.8901322334    3.9524888985
N        1.4075151754    1.9032504782    3.7188256324
N       -1.0965590484    1.3497911380    3.5664149053
O        0.3057194115    1.2951001776    1.4391551401
O        0.7432471619   -0.4708454101    3.1918587752
O        3.5475959808    5.1590343935    5.8945648161
S        0.3293676452    0.8823488964    2.8345238965
H        0.1477877179    3.6028194202    4.1945824230
H        3.2546582091    0.8481034822    3.3224376075
H       -2.0358629543    1.8346312602    1.7429094272
H       -2.6644602045    0.3439609475    2.5011482113
H       -3.0544758809    1.9413536198    3.1943195449
H       -0.4047445225    0.8599923479    5.5011877055
H       -2.1115931803    1.3176996238    5.3841608733
H       -1.5822141917   -0.3032694338    4.8407815755
H        3.2961676900    5.7053558525    3.8983036884
H        1.8598114508    5.7653142877    4.9391724501
H        4.2757723865    4.5363475909    5.7300876306
24   
torsion grid (-60,)
C        1.1091770147    3.2028345909    4.2724919551
C        2.6819544181    2.1329562848    3.0968720884
C        2.2764652614    3.9143404161    4.2541312917
C       -1.7504224141    1.6774674387    2.7270807044
C       -1.8379968360    0.4010046808    4.8613209806
C        2.6203454599    5.2383809941    4.8700414821
N        3.2476036490    3.2326060413    3.5210465806
N        1.3413242325    2.0772164144    3.4650516015
N       -1.0263463423    1.1860052360    3.9126483575
O        0.5732985207    0.0023964369    2.2415690578
O        0.9599874945   -0.1560882353    4.7511303651
O        3.8176576209    5.1654451475    5.6421861482
S        0.4929939563    0.5723020005    3.5818645934
H        0.1487819319    3.3708657696    4.7337815987
H        3.1384168449    1.3557793072    2.4978907973
H       -1.0944322606    2.3068577377    2.1239050613
H       -2.1304314478    0.8584265720    2.1054966269
H       -2.5848229811    2.2879082991    3.0811144503
H       -1.2285476874    0.1160492680    5.7174607428
H       -2.6505709145    1.0471047752    5.2026520827
H       -2.2640579438   -0.4978865643    4.3981192834
H        2.7216003095    5.9951640128    4.0778658732
H        1.8248072977    5.5616373957    5.5459440799
H        4.4681561036    4.6838795236    5.1027615744
24   
torsion grid (-45,)
C        1.1711333889    3.1549854072    4.4417723680
C        2.5907750993    2.1646954274    3.0219313204
C        2.3008206283    3.9070556865    4.2725327501
C       -1.6533987675    1.6824778629    2.7020234063
C       -1.9446945678    0.3262373450    4.7607239146
C        2.6895235786    5.2287430748    4.8666546513
N        3.1749443388    3.2762734183    3.3874991196
N        1.3258118066    2.0526008446    3.5884339384
N       -1.0474607248    1.1656062477    3.9425110701
O        0.6797973347   -0.0905849166    2.4345131786
O        0.8844407068   -0.1151825120    4.9680705842
O        3.9878767196    5.1809616468    5.4557815793
S        0.4959034155    0.5484564496    3.7335859568
H        0.2796481408    3.2820665634    5.0362536957
H        2.9751250312    1.4160832701    2.3420325064
H       -0.9499396755    2.3428081208    2.1925544804
H       -1.9505430056    0.8772811241    2.0199407718
H       -2.5318574301    2.2673140627    2.9849556074
H       -1.4245489272    0.0059268269    5.6621908012
H       -2.7970526184    0.9482316153    5.0444281928
H       -2.3079749373   -0.5519031171    4.2119238948
H        2.6515466430    6.0047213994    4.0875419527
H        1.9907777325    5.5104804743    5.6581763972
H        4.5677383176    4.7328999736    4.8162677246
24   
torsion grid (-30,)
C        1.2292882727    3.2847008891    3.7564976282
C        3.0145221641    1.9896693591    3.3973021336
C        2.3870245942    4.0110954055    3.8495185107
C       -1.8095292782    1.6059183507    3.1591191312
C       -0.3991026805    1.1066296083    1.1625029193
C        2.5943601751    5.4715854792    4.1146586468
N        3.4879861903    3.1909403554    3.6198923864
N        1.6279132715    1.9839910915    3.4290197797
N       -0.6661869715    0.8804960220    2.5899570756
O        1.4511837426   -0.4569435525    2.8789154769
O        0.1852137817    0.4324067032    4.9161731200
O        3.2842643962    6.1176722270    3.0421970972
S        0.6420028369    0.5516041943    3.5425453331
H        0.1930919295    3.5557189895    3.8867594290
H        3.5776437813    1.0919661721    3.1814079108
H       -1.8672111714    1.4205645667    4.2306502790
H       -1.7432611295    2.6849573190    2.9690349097
H       -2.7190013347    1.2225057155    2.6885609280
H        0.3643316397    0.4105570379    0.8166658691
H       -1.3235227717    0.9078948521    0.6147046896
H       -0.0769942048    2.1378649626    0.9680930244
H        1.6335043443    5.9809807295    4.2192506582
H        3.1498810517    5.5932946219    5.0555505058
H        4.0762638391    5.5841239229    2.8601200690
24   
torsion grid (-15,)
C        1.2328596547    3.2963260166    3.9579841827
C        2.9476089476    2.0395261814    3.2654216647
C        2.3838867682    4.0359703957    3.8839274001
C       -1.7738340875    1.6843581375    3.1083843997
C       -0.3138686349    1.0186578797    1.2102029544
C        2.6198267832    5.4888687988    4.1670678144
N        3.4393725648    3.2404088036    3.4483883267
N        1.5871206557    2.0116039229    3.5326862257
N       -0.6655275528    0.8457533673    2.6282284436
O        1.4485998784   -0.4512290623    3.0625585035
O        0.0939209669    0.5191283148    5.0098343921
O        3.1259746379    6.1802308036    3.0228139481
S        0.6090402810    0.5767234568    3.6535741997
H        0.2330091945    3.5400657789    4.2825724848
H        3.4757453718    1.1558989051    2.9346282054
H       -1.9311371251    1.5118671469    4.1721336397
H       -1.5926980110    2.7509763630    2.9216166753
H       -2.6750792143    1.3819549989    2.5689609931
H        0.4200054061    0.2677224098    0.9199241165
H       -1.2217600986    0.8630489931    0.6228616668
H        0.0799110268    2.0235994037    1.0077996074
H        1.6839436381    5.9814896514    4.4409552040
H        3.3166339008    5.5854371745    5.0119126559
H        3.8853703789    5.6654753578    2.7012125408
24   
torsion grid (0,)
C        1.2196124211    3.1570404277    4.0802139290
C        2.8309848271    1.9766620756    3.0718900221
C        2.3370911901    3.9247992056    3.8790735879
C       -1.7474152446    1.7027304736    2.9412722926
C       -0.2621603691    0.9179299890    1.1167694444
C        2.5972284928    5.3625296595    4.2152411622
N        3.3271479099    3.1775578103    3.2487379654
N        1.5323080742    1.9021977570    3.5476947745
N       -0.6907118800    0.7710578124    2.5170904567
O        1.3840432245   -0.5577414928    3.0415970325
O       -0.0421519257    0.4307106494    4.9317395110
O        2.9545928697    6.1228108660    3.0586957269
S        0.5351212074    0.4796336098    3.6009022349
H        0.2774392243    3.3518489748    4.5694406908
H        3.3184584192    1.1232869392    2.6210733758
H       -1.9935941392    1.5264664756    3.9875687094
H       -1.4554455127    2.7508971862    2.7930166743
H       -2.6326230169    1.4938459962    2.3355302517
H        0.4323133785    0.1189735983    0.8600587989
H       -1.1506636117    0.8228791865    0.4885200810
H        0.2055945473    1.8947330291    0.9326183485
H        1.6990614985    5.8261725085    4.6298801517
H        3.3923049085    5.4217286678    4.9722458095
H        3.6636088986    5.6299110562    2.6119310274
24   
torsion grid (15,)
C        1.2683198385    3.1139253282    4.2315976762
C        2.7525316103    2.0042847124    2.9765616029
C        2.3245433082    3.9195994367    3.8926814584
C       -1.6603912350    1.7997735723    2.8855404706
C       -0.1720464325    0.8749719125    1.1339061440
C        2.5906488081    5.3570026831    4.2261482063
N        3.2366607309    3.2157526468    3.1124040057
N        1.5461119710    1.8758962508    3.6440476309
N       -0.6575283515    0.7857677097    2.5206804345
O        1.3619403538   -0.5889031004    3.1464125146
O       -0.1125883049    0.4632982967    4.9645170266
O        2.7677084722    6.1505385823    3.0503933408
S        0.5182891897    0.4767400174    3.6576282024
H        0.3966810961    3.2652971713    4.8502985897
H        3.1976860742    1.1747272888    2.4445231003
H       -1.9767841956    1.6472870555    3.9166033427
H       -1.2788920563    2.8213160685    2.7550549763
H       -2.5240880946    1.6568679458    2.2317969045
H        0.4912456286    0.0371343062    0.9230742462
H       -1.0412986246    0.8060585956    0.4760746373
H        0.3482512024    1.8234278995    0.9413136132
H        1.7449731122    5.7855409366    4.7689226320
H        3.4789742462    5.4243161583    4.8702907865
H        3.4302094349    5.6933605109    2.5051801798
24   
torsion grid (30,)
C        1.3060844129    3.1045832540    4.3655643808
C        2.6249074274    2.0660385238    2.8863320039
C        2.2871392186    3.9453517347    3.9074040059
C       -1.6080706724    1.9433418254    2.8343570860
C       -0.1519319397    0.8454681067    1.1558571280
C        2.5689746525    5.3797629115    4.2420969132
N        3.0981330613    3.2850813900    2.9889258920
N        1.5363071991    1.8835990847    3.7233624032
N       -0.6683098444    0.8501518439    2.5337807643
O        1.2731902539   -0.5893280218    3.2660077277
O       -0.2167535745    0.5703931059    5.0018143624
O        2.6056459139    6.1975038263    3.0705573778
S        0.4564710364    0.5230365391    3.7167936688
H        0.5160385325    3.2171845890    5.0927897741
H        3.0165389916    1.2612858807    2.2790071681
H       -1.9803030282    1.8354677073    3.8522583267
H       -1.1450562093    2.9310047956    2.7063594518
H       -2.4492886469    1.8511154541    2.1435349265
H        0.4754302173   -0.0317594705    1.0027610402
H       -1.0103595155    0.7816618434    0.4833741905
H        0.4151385426    1.7579162314    0.9251740830
H        1.7818812159    5.7835103110    4.8831032301
H        3.5213486857    5.4493263220    4.7869951995
H        3.2038836619    5.7558645935    2.4441176094
24   
torsion grid (45,)
C        1.3737676897    3.0271835214    4.4938610086
C        2.5004444936    2.0859867612    2.8075854164
C        2.2642228254    3.9119405913    3.9445286758
C       -1.5148565409    2.0324353396    2.7735485209
C       -0.1563964703    0.7009755806    1.1817581574
C        2.5591445507    5.3386597789    4.3007986837
N        2.9577669948    3.3115262826    2.8967496605
N        1.5509007458    1.8324238261    3.7861579825
N       -0.6642061708    0.8503383333    2.5540013428
O        1.1886083243   -0.6531330181    3.3961935012
O       -0.2897366256    0.6366436902    5.0404481065
O        2.4474941667    6.1981055234    3.1647294560
S        0.4130653655    0.5136594832    3.7760135013
H        0.6737420182    3.0925296101    5.3131857099
H        2.8315381272    1.3176120146    2.1218891634
H       -1.9153581483    2.0109529521    3.7862225747
H       -0.9672168407    2.9696456439    2.6072737601
H       -2.3465911928    1.9735846051    2.0678672235
H        0.4316576508   -0.2127714847    1.1058370468
H       -1.0211426260    0.6153886391    0.5195378585
H        0.4468607388    1.5642347112    0.8691535060
H        1.8439893728    5.7017717496    5.0425049122
H        3.5662919235    5.4090147072    4.7362528267
H        2.9746296542    5.7899913442    2.4569241637
24   
torsion grid (60,)
C        1.4548726734    2.9548889948    4.5658336686
C        2.3366772848    2.1800018849    2.6656470006
C        2.2525045282    3.8990789954    3.9759314813
C       -1.4253647672    2.1253562110    2.6134471597
C       -0.2132908317    0.5411362888    1.1340842709
C        2.5871747974    5.2965258310    4.4065249457
N        2.7944878716    3.4013923766    2.7931764445
N        1.5437916625    1.8214685743    3.7471485211
N       -0.6750626921    0.8641937984    2.4918872113
O        1.0915659956   -0.6815003850    3.4457288900
O       -0.3628044329    0.7348395890    4.9923033198
O        2.3431849552    6.2402369225    3.3621162475
S        0.3590586873    0.5346294199    3.7480655543
H        0.8600598703    2.9454649940    5.4665350511
H        2.5811543063    1.4801446635    1.8779149215
H       -1.8254202731    2.2177387665    3.6223551893
H       -0.8008679049    2.9972776598    2.3776275652
H       -2.2597162807    2.0813444001    1.9098047543
H        0.3545076558   -0.3882498608    1.1506287040
H       -1.0998299452    0.3976395586    0.5113400233
H        0.3949710692    1.3477397834    0.7039113633
H        1.9639478411    5.5934796836    5.2531849994
H        3.6384713182    5.3426164305    4.7256930171
H        2.7757777305    5.8882113658    2.5655761763
24   
torsion grid (75,)
C        1.5872930074    2.9977068207    4.6356838712
C        2.1093911888    2.4382026165    2.5388204893
C        2.3193672615    3.9864229169    4.0334588699
C       -1.4267073143    2.0854863455    2.4050288146
C       -0.2286731848    0.2725595967    1.1819079540
C        2.7790018919    5.3141875471    4.5595437282
N        2.6365927336    3.6232556734    2.7272024464
N        1.4857613659    1.9740319717    3.6865143335
N       -0.6557139660    0.8347819693    2.4703501933
O        1.0819012867   -0.5759333683    3.6493284917
O       -0.4336154762    0.9764862066    4.9808108780
O        2.4188404779    6.3816931216    3.6814915730
S        0.3291203900    0.6580874835    3.7859463001
H        1.1329411580    2.9027543430    5.6100446077
H        2.1899114291    1.8396076553    1.6418483721
H       -1.8051509727    2.3358851794    3.3954213390
H       -0.8215239210    2.9153073873    2.0167052036
H       -2.2767024094    1.9177022812    1.7395255088
H        0.3967506693   -0.6027839771    1.3511867093
H       -1.1262932894   -0.0383038217    0.6406691701
H        0.3120774716    1.0089099045    0.5736802913
H        2.3097944125    5.5243516360    5.5234878802
H        3.8683923017    5.2942163502    4.7090825894
H        2.6883021316    6.1068160298    2.7885450480
24   
torsion grid (90,)
C        0.9710564550    3.1778073815    3.6748351697
C        2.4919381656    2.2112637885    4.9924510560
C        2.0326911191    4.0175173960    3.8951047217
C        2.2931328867   -0.9491885543    3.5613428702
C        1.6901249353   -1.0823832036    5.9950774440
C        2.2964732026    5.4038943699    3.3859459173
N        2.9708082426    3.4010439986    4.7155269365
N        1.2597882452    2.0186083081    4.3968127730
N        1.3420712841   -0.6441365572    4.6376613465
O       -0.6030813979    0.6596921806    5.5658698406
O       -0.2544340184    0.5141961523    3.0530330380
O        3.5781378479    5.5062714164    2.7639351988
S        0.2694615650    0.5768814314    4.4071664682
H        0.0734690238    3.2631802873    3.0809181364
H        2.9601066521    1.4661631410    5.6200144357
H        1.8542584596   -0.6899358743    2.5984824493
H        3.2380848473   -0.4076768434    3.6924035881
H        2.4874309597   -2.0249445519    3.5751493110
H        0.9216915144   -0.7577318046    6.6947860132
H        1.7321725370   -2.1753015613    6.0013452850
H        2.6649889909   -0.6887684355    6.3086505158
H        1.5551476511    5.6797406299    2.6323201492
H        2.2184902240    6.1197776921    4.2173999592
H        4.2117618706    5.0816585921    3.3669378835
24   
torsion grid (105,)
C        0.9618495098    3.2327254989    3.6806705450
C        2.6230203327    2.1163460536    4.6677169091
C        2.0414564753    4.0514185188    3.8954763396
C        2.2830201288   -1.1860962115    3.6114507993
C        1.5666402963   -0.9623144172    6.0117650462
C        2.2434336810    5.4995585638    3.5608594677
N        3.0666702840    3.3412342700    4.5090988740
N        1.3340367101    1.9877722137    4.1867520040
N        1.3437086180   -0.6394134165    4.5977024923
O       -0.6664202203    0.7482051030    5.2178916531
O       -0.0618896462    0.4022081821    2.7742072482
O        3.4301733388    5.7085329259    2.7936804378
S        0.3201867008    0.5636737239    4.1669995950
H       -0.0010962226    3.3917566372    3.2181944972
H        3.1628624362    1.2952953401    5.1170022200
H        1.9601038066   -0.9182295037    2.6064103949
H        3.2996328449   -0.8113437590    3.7802455982
H        2.2818895902   -2.2766145184    3.6980733253
H        0.7935028854   -0.4986402887    6.6223092530
H        1.5063484875   -2.0478311996    6.1346678236
H        2.5528805033   -0.6191708614    6.3471792717
H        1.4091706300    5.8710551532    2.9611831379
H        2.2824755538    6.0868923420    4.4900640001
H        4.1368922119    5.2089526827    3.2366386935
24   
torsion grid (120,)
C        0.9318141459    3.2456468950    3.7431396779
C        2.7200420000    2.0723559100    4.3796824541
C        2.0237650555    4.0620199105    3.8952715202
C        2.2940181301   -1.3478106399    3.7121536055
C        1.5854082805   -0.7740254232    6.0566934875
C        2.1653724335    5.5418090203    3.6948094020
N        3.1278961145    3.3166462252    4.2918308459
N        1.3795860734    1.9643100178    4.0623777991
N        1.3774098871   -0.6358905653    4.6105696328
O       -0.6752564280    0.7814498823    4.9960590652
O        0.1036188648    0.2634104633    2.6306494389
O        3.2426895076    5.8589984345    2.8124096565
S        0.3824213585    0.5282512586    4.0318680536
H       -0.0900045087    3.4323027605    3.4471207605
H        3.3234017711    1.2212678593    4.6604930394
H        2.0097956208   -1.1676154021    2.6766148738
H        3.3309910490   -1.0265406880    3.8673925201
H        2.2176295710   -2.4202757112    3.9146670111
H        0.7919789052   -0.2569555809    6.5943076183
H        1.5444866005   -1.8368349736    6.3126547753
H        2.5577198587   -0.3678599860    6.3603936375
H        1.2575445788    5.9535345004    3.2476151550
H        2.3156451767    6.0291799379    4.6694744824
H        4.0031074967    5.3269019895    3.1021835410
24   
torsion grid (135,)
C        0.9929014281    3.2460994737    3.8157086492
C        2.8368990609    2.0183152925    4.0871847503
C        2.0965813546    4.0470204919    3.9623888383
C        2.3224339908   -1.4633504581    3.8206899155
C        1.5586259401   -0.5515373800    6.0323236148
C        2.2179391051    5.5417208047    3.9541516495
N        3.2359649633    3.2673277035    4.1295980642
N        1.4699878070    1.9376483968    3.8977749531
N        1.3756147684   -0.6368025095    4.5787398878
O       -0.6748206818    0.8360560560    4.6553974761
O        0.3405548359    0.1413978486    2.4238671545
O        3.1509318009    5.9971569265    2.9727227472
S        0.4705899154    0.5051017744    3.8242659332
H       -0.0574173807    3.4572618772    3.6804288753
H        3.4666086400    1.1441158574    4.1718984700
H        2.0912094183   -1.4085058686    2.7582069772
H        3.3580586014   -1.1426935816    3.9885247260
H        2.2155341758   -2.5010195609    4.1502131809
H        0.7246509498   -0.0103130651    6.4775418174
H        1.5667871688   -1.5676940478    6.4363164004
H        2.5001299322   -0.0515352618    6.2908910126
H        1.2563458536    5.9996329448    3.7110220686
H        2.5173761471    5.8886499437    4.9540695916
H        3.9524719933    5.4577684738    3.0803234939
24   
torsion grid (150,)
C        0.9961174679    3.1543857715    3.8985492537
C        2.8516910711    1.9381584750    3.6477752447
C        2.1147008588    3.9378981514    4.0170922610
C        2.3388084158   -1.5028677753    4.0100668661
C        1.4695894250   -0.2826369162    6.0093280903
C        2.2421890949    5.4128240973    4.2536815407
N        3.2617033041    3.1657015582    3.8574753243
N        1.4692592714    1.8645886138    3.6442528448
N        1.2993171061   -0.6475758304    4.5968534763
O       -0.7207174028    0.8364311733    4.3455411340
O        0.4717724030   -0.0986120746    2.2854125751
O        2.9645016492    6.0646600819    3.2069593179
S        0.4802016572    0.4201794448    3.6414380174
H       -0.0611705092    3.3599860411    3.9691392132
H        3.4802469520    1.0799703785    3.4551298654
H        2.1452140992   -1.6427505209    2.9477611816
H        3.3421047707   -1.0821424589    4.1544998661
H        2.2929004357   -2.4768519441    4.5052455833
H        0.5749585885    0.2249091843    6.3684481879
H        1.5980412590   -1.2051082896    6.5810210240
H        2.3466789302    0.3606233848    6.1588555723
H        1.2545165826    5.8781768019    4.2897356515
H        2.7363007087    5.5847247251    5.2211745395
H        3.7736609117    5.5460051201    3.0618822963
24   
torsion grid (165,)
C        0.9930544391    2.9766398067    3.9624758581
C        2.7418450393    1.8512290722    3.1471643641
C        2.1308717827    3.7385558564    4.0102601801
C        2.4463769459   -1.3669014842    4.2079210236
C        1.3087924182   -0.0573228805    5.9825409415
C        2.3333687177    5.1489255055    4.4765548121
N        3.2109420703    3.0235645881    3.4973034500
N        1.3752035177    1.7654456078    3.3738021223
N        1.2432614682   -0.6377917128    4.6323767569
O       -0.8044610821    0.7118628023    4.0874181589
O        0.5723481502   -0.3802794060    2.2143429532
O        2.8594027173    5.9865500004    3.4457248208
S        0.4526700322    0.2850374839    3.4985662714
H       -0.0310791322    3.1563308798    4.2520270621
H        3.2961746048    1.0534877003    2.6717594221
H        2.3239586758   -1.7148784142    3.1831856345
H        3.3511896780   -0.7505604835    4.2918793218
H        2.5520809903   -2.2370299467    4.8610282004
H        0.3373207239    0.3539747198    6.2535085591
H        1.5524283919   -0.8636697241    6.6782158806
H        2.0785745187    0.7231092646    6.0536857089
H        1.3808700046    5.5882548755    4.7817253872
H        3.0048523697    5.1500995435    5.3479473951
H        3.6141275610    5.5121909805    3.0581128391
24   
torsion grid (180,)
C        1.0768520072    2.8980828018    4.0703624588
C        2.6921692176    1.8729514384    2.9129158958
C        2.1987495834    3.6818365029    3.9951818524
C        2.5497036240   -1.2234622334    4.2938859370
C        1.1467130309   -0.0904245693    5.9941600993
C        2.4529087371    5.0628687428    4.5204087724
N        3.1938063611    3.0300797373    3.2703366731
N        1.3822088631    1.7384707273    3.3490460669
N        1.2400972087   -0.6490110787    4.6352943992
O       -0.8113588515    0.6406864151    3.9559114734
O        0.7093722922   -0.4213183018    2.1779239485
O        2.8010336571    5.9780037636    3.4805196474
S        0.4902081504    0.2462023607    3.4478638114
H        0.1008416582    3.0413860350    4.5088380888
H        3.1718541283    1.1182106120    2.3043377959
H        2.5229935596   -1.6206698657    3.2799840278
H        3.3600139162   -0.4879736259    4.3896759386
H        2.7373031454   -2.0483117202    4.9855666538
H        0.1223047550    0.2219633367    6.1919662416
H        1.4116094730   -0.8851192888    6.6953624779
H        1.8304360573    0.7572902207    6.1374651319
H        1.5538902787    5.4587764729    4.9985055796
H        3.2518151100    5.0225741070    5.2756657265
H        3.4909806535    5.5470747454    2.9482978860
