28   
torsion grid (-165,)
H        0.3242913765    2.1279677358   -2.2468637557
C        0.7824553075    1.2317637820   -1.8229215751
C       -0.0336308195    0.6772269169   -0.6576443317
O        0.1424393261    1.5941449677    0.4347331035
C        0.2557763154    1.0453756153    1.6801357498
C        0.9304690085    2.0011249342    2.6196391866
O       -0.1202567596   -0.0816505220    1.9437555866
O        0.7364540256    0.1764956248   -2.8308206783
C        0.7499965851    0.5404229983   -4.1263194135
C        0.8495758250   -0.6788837769   -5.0167946942
O        0.7023426620    1.6887745681   -4.5331327112
C        2.2180784173    1.5472981615   -1.4237677727
O        2.7416663634    0.4719637096   -0.6667819313
P        4.1603144669    0.8337915924    0.1754350935
O        5.2305610639    1.1455970522   -0.8344679982
O        4.4196648469   -0.6865163728    0.7804804179
O        3.7925671310    1.7442612106    1.3133156668
H        0.3380733697   -0.3069462527   -0.3761366952
H       -1.0959520271    0.6072316546   -0.9159647217
H        0.5723294162    3.0227276142    2.4626893789
H        2.0046527605    1.9756753262    2.3709587473
H        0.7674931273    1.6843449029    3.6511632742
H        0.1735913349   -1.4663385057   -4.6739902744
H        1.8696728455   -1.0723809981   -4.9596778614
H        0.6260917942   -0.4001517069   -6.0471431626
H        2.2029257540    2.4712401516   -0.8326445860
H        2.8201654840    1.7269410458   -2.3238689096
H        4.9650103467   -1.1521603431    0.1263390258
28   
torsion grid (-150,)
H        0.4339234654    2.1054466355   -2.0703503843
C        1.0008189709    1.2000291635   -1.8408595268
C        0.5546070143    0.5814965379   -0.5213550237
O        0.9209537865    1.5221136873    0.5014523736
C        1.1685032799    1.0065236394    1.7363803334
C        1.9480502031    1.9819800686    2.5702098186
O        0.8185600737   -0.1109216073    2.0710331057
O        0.6714283643    0.1876965514   -2.8408102282
C        0.3629453993    0.6056019950   -4.0813163336
C        0.1945504834   -0.5765527700   -5.0109465658
O        0.2460757358    1.7711426871   -4.4201284310
C        2.4904227364    1.5231501474   -1.8623276654
O        3.2286590300    0.4034212186   -1.4099268612
P        4.6837941718    0.7692306834   -0.6345925132
O        5.6466137724    1.2918980032   -1.6657739208
O        5.0979850555   -0.7928494625   -0.2663416489
O        4.3539106312    1.4945702012    0.6390989873
H        1.0712299724   -0.3633845238   -0.3561310794
H       -0.5279752628    0.4149196044   -0.5097197729
H        1.5610207190    2.9978646262    2.4484058504
H        2.9744365428    1.9569850073    2.1757068129
H        1.9230637903    1.6782701744    3.6180170421
H       -0.4050310577   -1.3588047068   -4.5384028834
H        1.1814002103   -1.0009199866   -5.2222271500
H       -0.2665602510   -0.2479374062   -5.9429315966
H        2.6447211408    2.3895640377   -1.2084651028
H        2.7894774842    1.8032907977   -2.8806552863
H        5.6516350109   -1.1055443445   -0.9995702971
28   
torsion grid (-135,)
H        0.2602537869    2.0671435938   -1.9132156499
C        0.9314044253    1.2268382324   -1.7187825128
C        0.5396244138    0.4774592361   -0.4476896105
O        0.8504796805    1.3658619998    0.6368695022
C        1.0455471861    0.8007410523    1.8583659100
C        1.7627321584    1.7666134167    2.7624609339
O        0.6696388901   -0.3220160757    2.1405913159
O        0.7565168327    0.2454733811   -2.7853147269
C        0.4542794015    0.6988003701   -4.0143557626
C        0.4439502090   -0.4406322794   -5.0103856256
O        0.2298446702    1.8638602883   -4.2969712115
C        2.3689483684    1.7327219811   -1.6559189360
O        3.2287012014    0.6770956669   -1.2717284666
P        4.4145806057    0.9473728962   -0.1057995973
O        5.6750165497    0.3085933769   -0.6062041512
O        3.7996939038   -0.0320490945    1.1057085291
O        4.2697490996    2.3602306222    0.3856709335
H        1.1323466991   -0.4324514424   -0.3526483487
H       -0.5259351150    0.2244668431   -0.4418085006
H        1.1965371765    2.7013359427    2.8376155145
H        2.7345237205    1.9956334331    2.3112558791
H        1.8879474332    1.3192691090    3.7491390336
H       -0.1166091164   -1.2926054129   -4.6166742005
H        1.4733867443   -0.7737659188   -5.1767626630
H        0.0134245097   -0.1005009740   -5.9527874305
H        2.4246070264    2.5605627758   -0.9440607174
H        2.6545421956    2.1084763760   -2.6480606764
H        4.1882045249   -0.9140321727    0.9946303825
28   
torsion grid (-120,)
H        0.1914011359    2.0613037201   -1.8762606590
C        0.9227439705    1.2660108904   -1.7092238214
C        0.6036669534    0.4806520000   -0.4418335225
O        0.8260877312    1.3961458036    0.6404384303
C        0.9395259630    0.8577548664    1.8827724484
C        1.6154771458    1.8361814860    2.8047111501
O        0.5318094792   -0.2533864281    2.1686154081
O        0.7878788066    0.2867962632   -2.7845016442
C        0.4325398094    0.7321202626   -4.0014788420
C        0.4725910234   -0.3961992789   -5.0095458370
O        0.1298983535    1.8836865395   -4.2669956750
C        2.3227230807    1.8752473924   -1.6912725831
O        3.3048538717    0.8945940130   -1.4095794851
P        4.2901513587    1.0562664039   -0.0547795412
O        5.6111878513    0.4494338132   -0.4186603982
O        3.5201110366   -0.0182801150    0.9781460523
O        4.0704777710    2.4239199698    0.5282837672
H        1.2836370259   -0.3659969385   -0.3387393618
H       -0.4320672263    0.1254679805   -0.4425530590
H        1.0476023228    2.7723333277    2.8399029301
H        2.6038513370    2.0615431781    2.3872807697
H        1.6943301492    1.4052520445    3.8036664023
H       -0.0324397306   -1.2825976172   -4.6166082370
H        1.5167053885   -0.6684758625   -5.1941714291
H        0.0088416778   -0.0724369204   -5.9418957676
H        2.3484459646    2.6762772645   -0.9470835249
H        2.5246265358    2.3088531647   -2.6792798165
H        3.9787701980   -0.8696257125    0.9011280171
28   
torsion grid (-105,)
H       -0.0924432485    1.9178261932   -1.9447056810
C        0.7055720639    1.1764912783   -1.8453052394
C        0.5047030451    0.3329869058   -0.5940562357
O        0.7141688112    1.2210355815    0.5118372232
C        0.8758899595    0.6427089811    1.7299787562
C        1.5502638666    1.6051027478    2.6685965647
O        0.5121060316   -0.4914896495    1.9848222696
O        0.5711371485    0.2154571154   -2.9405614752
C        0.0905084172    0.6573313001   -4.1142649912
C        0.1535742435   -0.4374923912   -5.1575886854
O       -0.3281690796    1.7843375244   -4.3226446042
C        2.0420873591    1.9150403680   -1.9358974520
O        3.1787016426    1.0797842803   -1.8066362807
P        4.0779323266    1.0653910520   -0.3850268375
O        5.4410169762    0.5758728993   -0.7704399544
O        3.3360317132   -0.1854993062    0.4507390753
O        3.7700158759    2.3241232217    0.3761343284
H        1.2398750680   -0.4705673671   -0.5475626644
H       -0.5061345078   -0.0874331527   -0.5676907533
H        0.9613461905    2.5250867651    2.7510667980
H        2.5175806478    1.8735053549    2.2252206636
H        1.6677534738    1.1427896593    3.6497322767
H       -0.2326684820   -1.3774562878   -4.7547364321
H        1.2003206949   -0.6035629680   -5.4318996386
H       -0.4118920532   -0.1370122851   -6.0402967353
H        2.0509450955    2.6927541616   -1.1647259767
H        2.0891470930    2.3975529962   -2.9194723758
H        3.8834985363   -0.9744644720    0.3122679813
28   
torsion grid (-90,)
H        0.0554520032    1.8986254278   -1.8215380137
C        0.8724447235    1.1804050480   -1.6977036396
C        0.6566444758    0.3734488590   -0.4230012542
O        0.6671855224    1.3362003644    0.6476801093
C        0.9263739049    0.8457787541    1.8856673464
C        1.4388856634    1.9336894803    2.7896400341
O        0.7763451572   -0.3230622228    2.1893868763
O        0.7836555544    0.1958414549   -2.7694715105
C        0.3973478060    0.6172863140   -3.9840366040
C        0.5252873607   -0.4998368856   -4.9965734919
O        0.0083108080    1.7440977178   -4.2453943751
C        2.1861466672    1.9657469391   -1.7861924506
O        3.3576055867    1.1792382591   -1.8963035166
P        4.1961543846    0.6630031344   -0.5326598046
O        5.6280423815    0.5299146300   -0.9551629768
O        3.5895851113   -0.8895703376   -0.3702107150
O        3.6902336959    1.4521212409    0.6420987172
H        1.4462959333   -0.3624362090   -0.2723273817
H       -0.3125359368   -0.1362590281   -0.4603579446
H        0.8833119111    2.8641920536    2.6414477514
H        2.4782847011    2.0991381060    2.4829603745
H        1.3879817142    1.6119520674    3.8311612879
H        0.1105186097   -1.4303797847   -4.6003605490
H        1.5881399814   -0.6717214695   -5.1946293410
H        0.0218213773   -0.2175838985   -5.9218776315
H        2.2335342039    2.6145065224   -0.9045746891
H        2.1396879886    2.5885617240   -2.6857922669
H        4.1933155776   -1.4701884092   -0.8603589633
28   
torsion grid (-75,)
H        0.0827332514    2.1391614598   -0.4247367213
C        1.0899964640    1.7635467791   -0.6240143989
C        1.5902896588    0.9607986925    0.5637383517
O        0.6249297706   -0.0656121069    0.9475209074
C       -0.3855523951    0.3028962206    1.7500975564
C       -1.3339435763   -0.8551115214    1.9812198722
O       -0.5337532601    1.4174215070    2.2261227612
O        1.0398210223    0.8475024335   -1.7309291314
C        0.4729473911    1.3027904988   -2.8753230627
C        0.8834517477    0.4396348501   -4.0357306948
O       -0.2546921975    2.2810543190   -2.9238829701
C        2.0273305380    2.9712962009   -0.9590379102
O        2.7900740721    2.7874028763   -2.1324087142
P        4.1202444652    1.7562554487   -2.1441564404
O        4.2818905040    1.2056950043   -0.7453852320
O        5.3446045776    2.8657809556   -2.3620703763
O        4.0128245587    0.9428767808   -3.3946880381
H        1.7558988254    1.6225262294    1.4152663617
H        2.5105279911    0.4411700823    0.3025481159
H       -0.7790920993   -1.7594337095    2.2448876655
H       -1.8778630287   -1.0619333237    1.0538440854
H       -2.0428291945   -0.5977149124    2.7689173065
H        0.7087234031   -0.6161689809   -3.8053909204
H        1.9667971077    0.5711002153   -4.1658190288
H        0.3329318717    0.7344202990   -4.9306083513
H        2.6720113570    3.1650810165   -0.0927153126
H        1.4046164445    3.8504608720   -1.1414099300
H        5.6906404124    3.0605054889   -1.4765249213
28   
torsion grid (-60,)
H        0.1587638069    2.0983473492   -0.4301732664
C        1.1835884759    1.7746703305   -0.6351261616
C        1.7027833381    0.9729774900    0.5461296009
O        0.7436538555   -0.0636519269    0.9238332021
C       -0.2671563234    0.2900278441    1.7321826363
C       -1.2045237052   -0.8781126205    1.9584812151
O       -0.4245193062    1.3997981488    2.2165807804
O        1.1727303824    0.8739478038   -1.7567547483
C        0.5633522445    1.3018672514   -2.8871315221
C        0.9590357956    0.4328428666   -4.0483913384
O       -0.1848708151    2.2656877252   -2.9275072968
C        2.0305073247    3.0457798842   -0.9520952056
O        2.9319387285    2.9382197920   -2.0344155114
P        4.1825908938    1.8111159859   -2.0778042682
O        4.3640736877    1.2901875219   -0.6707286614
O        5.4466080216    2.8478484213   -2.3892568345
O        3.9971526966    0.9654771244   -3.2973300507
H        1.8624163135    1.6316492498    1.4006307289
H        2.6267929844    0.4622925414    0.2848532807
H       -0.6407184110   -1.7797027212    2.2122977238
H       -1.7511809011   -1.0822751521    1.0320889119
H       -1.9120008645   -0.6331842293    2.7514300408
H        0.7778997552   -0.6207172209   -3.8123577821
H        2.0423652032    0.5567195397   -4.1821764695
H        0.4022500294    0.7280329508   -4.9391956900
H        2.5583952180    3.3359282207   -0.0326001691
H        1.3436607943    3.8486406190   -1.2282237521
H        5.7670596018    3.1574649168   -1.5268763326
28   
torsion grid (-45,)
H        0.1626554523    2.1073154900   -0.3959916879
C        1.1929722919    1.7982136654   -0.5993091392
C        1.7078087247    0.9911584413    0.5811071754
O        0.7409451263   -0.0431858344    0.9473901089
C       -0.2706783967    0.3090630016    1.7551634637
C       -1.2134076651   -0.8568889805    1.9705000688
O       -0.4254460239    1.4161683617    2.2466044634
O        1.1976771416    0.9050890257   -1.7284378705
C        0.5718003267    1.3162139539   -2.8542637151
C        0.9598326222    0.4379112166   -4.0111949948
O       -0.1817758775    2.2763984790   -2.8974438657
C        1.9977052232    3.0934069661   -0.8994487821
O        3.0326704452    3.0295333213   -1.8598392440
P        4.1970267342    1.8198724595   -1.9779286380
O        4.3704605365    1.2234041725   -0.6004843762
O        5.5063790175    2.8016885367   -2.2715325739
O        3.9522138618    1.0355537224   -3.2279513947
H        1.8630995150    1.6461549386    1.4390441754
H        2.6314220817    0.4781274224    0.3237978233
H       -0.6539058078   -1.7629031913    2.2179207952
H       -1.7593973339   -1.0512104333    1.0415693669
H       -1.9213268525   -0.6153237631    2.7640897835
H        0.7832628837   -0.6138549608   -3.7642064478
H        2.0417226515    0.5646790061   -4.1522448932
H        0.3951757580    0.7239741386   -4.9000076346
H        2.3890040319    3.4595304663    0.0622630453
H        1.2959794820    3.8348949429   -1.2869125696
H        5.8307760627    3.0969027523   -1.4055232613
28   
torsion grid (-30,)
H        0.1137204919    2.0809400852   -0.4882986496
C        1.1497258926    1.8049120435   -0.7103758135
C        1.7147992088    1.0229138079    0.4644894173
O        0.7908550360   -0.0411252946    0.8549008407
C       -0.2184825789    0.2828417852    1.6773720544
C       -1.1155388367   -0.9133661665    1.9199300694
O       -0.4034445613    1.3884290424    2.1618032753
O        1.1632253644    0.9053764993   -1.8349748037
C        0.4675185811    1.2610771402   -2.9376439341
C        0.8415830513    0.3738134879   -4.0922596145
O       -0.3289845532    2.1868856231   -2.9671791309
C        1.8887291550    3.1293713222   -1.0261495145
O        3.0015157969    3.1176822822   -1.8979236868
P        4.1121206900    1.8828043893   -2.1652868811
O        4.3287724650    1.1631272074   -0.8547912373
O        5.4314597396    2.8575825007   -2.4307258538
O        3.7968499408    1.2108842903   -3.4650819515
H        1.8620811957    1.6886752310    1.3157832127
H        2.6499831151    0.5398795234    0.1887362403
H       -0.5200432925   -1.7970471713    2.1640713060
H       -1.6716846533   -1.1347889601    1.0031851673
H       -1.8165574703   -0.6896661090    2.7248078026
H        0.7335015589   -0.6787147388   -3.8117862951
H        1.9067177453    0.5541387868   -4.2906176050
H        0.2189928509    0.6077897913   -4.9573078814
H        2.1776981111    3.5657363767   -0.0568394719
H        1.1623970710    3.7996915161   -1.4918109304
H        5.7942894256    3.0753941675   -1.5570775323
28   
torsion grid (-15,)
H        0.2209815966    2.0195047869   -0.5339914722
C        1.2566806418    1.7082294799   -0.7057011913
C        1.7418981878    0.9075017847    0.4923135934
O        0.7709311819   -0.1303719500    0.8342531548
C       -0.2676248460    0.2214314282    1.6075471392
C       -1.2116943110   -0.9473054687    1.7998346323
O       -0.4430586960    1.3308474297    2.0867513151
O        1.2971892932    0.8108873510   -1.8317967116
C        0.6352188592    1.1660848149   -2.9544833324
C        1.0341918234    0.2688004537   -4.0929893539
O       -0.1515307636    2.0992152843   -3.0126361908
C        2.0450786738    3.0085555669   -0.9757192830
O        3.2791408837    2.9669737612   -1.6647808291
P        4.2878087422    1.6655683954   -2.0081207243
O        4.4115126243    0.8222177065   -0.7610579853
O        5.6820423959    2.5554834084   -2.1559549341
O        3.9611453919    1.1266829785   -3.3665796583
H        1.8665648765    1.5674858450    1.3518997996
H        2.6748333018    0.3977081489    0.2569683923
H       -0.6556784513   -1.8544418392    2.0504775432
H       -1.7419991940   -1.1352999940    0.8605039571
H       -1.9338614042   -0.7113268367    2.5822288827
H        0.9085203588   -0.7810116186   -3.8099403288
H        2.1061781761    0.4390471614   -4.2604057019
H        0.4394124416    0.5034277508   -4.9772458362
H        2.1939231184    3.4888180371    0.0040280613
H        1.3905707010    3.6565848438   -1.5655622973
H        6.0353725452    2.6649934576   -1.2584965281
28   
torsion grid (0,)
H        0.2015263850    1.9071715085   -0.7744448648
C        1.2357220267    1.6403471542   -1.0155767759
C        1.8579244054    0.9126373018    0.1657774483
O        0.9731334573   -0.1550889528    0.6277414067
C       -0.0199414235    0.1815081928    1.4651045432
C       -0.8852975528   -1.0210762576    1.7796679872
O       -0.2147534211    1.3020259722    1.9096729619
O        1.2374820188    0.7039613046   -2.1101023205
C        0.4440444652    0.9576745989   -3.1729702148
C        0.7994264013    0.0397092790   -4.3094531212
O       -0.4141308914    1.8275742723   -3.1893843083
C        1.9276057219    2.9668470447   -1.3849039426
O        3.1759927499    2.9707794175   -2.0501324084
P        4.1383207880    1.6894308320   -2.5623044511
O        4.3918851550    0.7823519417   -1.3820671157
O        5.5083381467    2.5956263435   -2.8007278236
O        3.6714261876    1.2172832133   -3.9054969242
H        2.0216072846    1.6120769732    0.9869843328
H        2.7909869550    0.4361566791   -0.1331679755
H       -0.2660092745   -1.8884215863    2.0227471245
H       -1.4761230044   -1.2763030868    0.8938542949
H       -1.5561215177   -0.7846841691    2.6063852897
H        0.7951297373   -1.0013157790   -3.9717652688
H        1.8298707938    0.2894041060   -4.5953348834
H        0.1001575270    0.1810414395   -5.1351460372
H        2.0323755968    3.5312400296   -0.4462375569
H        1.2254629157    3.5151960914   -2.0215913708
H        5.9597874703    2.6397406419   -1.9425498197
28   
torsion grid (15,)
H        0.0996852730    1.7745712296   -0.5432418898
C        1.1313690360    1.5303763392   -0.8166714899
C        1.8277662257    0.8579250131    0.3557405245
O        1.0018555507   -0.2233626997    0.8882025689
C        0.0340543368    0.1069327564    1.7570394630
C       -0.7784361634   -1.1117725774    2.1423140558
O       -0.1784916047    1.2337898476    2.1766720669
O        1.1189180089    0.5644615289   -1.8851588116
C        0.2577253449    0.7490676136   -2.9083127135
C        0.6011140987   -0.1780694929   -4.0411596446
O       -0.6457607877    1.5721345563   -2.8991306727
C        1.7694023726    2.8632362118   -1.2441508156
O        3.0600874208    2.8919372943   -1.8240749712
P        3.9626213396    1.6236476649   -2.4645241537
O        4.2836800540    0.6560564540   -1.3507464972
O        5.3275462645    2.5244879653   -2.7460623751
O        3.3932652403    1.2235378560   -3.7924343258
H        2.0067845275    1.5865551279    1.1480068838
H        2.7605222958    0.4005582189    0.0256942920
H       -0.1231604749   -1.9568073163    2.3687031082
H       -1.4085582285   -1.4011354271    1.2948423032
H       -1.4110879643   -0.8756916264    2.9987039985
H        0.6748581315   -1.2084416494   -3.6799216358
H        1.5979747128    0.1218955923   -4.3899298830
H       -0.1488658850   -0.0973462874   -4.8297093331
H        1.7944551226    3.4961049195   -0.3459424852
H        1.0717026710    3.3250896944   -1.9524168685
H        5.8531306788    2.4812051144   -1.9312100923
28   
torsion grid (30,)
H        0.1754129351    1.7277845627   -0.4721292919
C        1.2081118709    1.4924960160   -0.7487173664
C        1.9294557097    0.8474935308    0.4236928658
O        1.1268309233   -0.2335523688    0.9903094504
C        0.1632701218    0.1034693770    1.8614018531
C       -0.6287106628   -1.1166628705    2.2830850912
O       -0.0607366167    1.2368485600    2.2566167422
O        1.1996041564    0.5119406777   -1.8038828810
C        0.3210056957    0.6666761846   -2.8166438198
C        0.6751063431   -0.2580201177   -3.9482423908
O       -0.6040868980    1.4653734524   -2.8024033450
C        1.8342063877    2.8239817231   -1.1926090484
O        3.1769785461    2.8595478643   -1.6405358630
P        4.0118679391    1.6184155105   -2.4146135274
O        4.3465333071    0.5578642681   -1.3937662867
O        5.3965054816    2.4940378522   -2.6802732048
O        3.3663455342    1.3423054734   -3.7401565985
H        2.1172559314    1.5913781825    1.1996237554
H        2.8596122315    0.3919472017    0.0827152665
H        0.0395133803   -1.9496013640    2.5162212593
H       -1.2681893922   -1.4297465313    1.4511721296
H       -1.2514306933   -0.8706188716    3.1439606799
H        0.8094879954   -1.2791705009   -3.5790089347
H        1.6455489605    0.0870780037   -4.3277956535
H       -0.0983655095   -0.2215401641   -4.7171871828
H        1.7665165158    3.5025942479   -0.3322229433
H        1.1865998159    3.2245005860   -1.9822395451
H        5.9708352587    2.3235872571   -1.9166730422
28   
torsion grid (45,)
H        0.1389199979    1.6781089994   -0.3205468438
C        1.1705451489    1.4530849468   -0.6082719082
C        1.9297729553    0.8442021277    0.5589108211
O        1.1667976828   -0.2441783917    1.1634247906
C        0.2123135239    0.0871599051    2.0464798514
C       -0.5407390372   -1.1431133579    2.5081036446
O       -0.0319262077    1.2226553536    2.4229952726
O        1.1592936342    0.4507129715   -1.6439638752
C        0.2729904491    0.5860180490   -2.6522544814
C        0.6356701825   -0.3366594790   -3.7829096158
O       -0.6651486554    1.3694603944   -2.6374359272
C        1.7874366128    2.7769353387   -1.0850767119
O        3.1705911456    2.8062288036   -1.3896663097
P        3.9518190694    1.6192794244   -2.2960527319
O        4.3242414563    0.4861308671   -1.3716194076
O        5.3369750345    2.4916412617   -2.5720789335
O        3.2217455527    1.4475387403   -3.5958490259
H        2.1228111708    1.6056431239    1.3161719720
H        2.8601687256    0.4000279973    0.2030248730
H        0.1523006978   -1.9549017156    2.7433686208
H       -1.1890484019   -1.4879528278    1.6958066651
H       -1.1517660403   -0.8950984266    3.3767508783
H        0.8203539393   -1.3480400205   -3.4091534161
H        1.5811845437    0.0453483110   -4.1884720487
H       -0.1551126121   -0.3371206918   -4.5349947292
H        1.6315406257    3.5065525352   -0.2808095401
H        1.2090606365    3.1075347662   -1.9563110763
H        5.9642746590    2.2153914509   -1.8850176542
28   
torsion grid (60,)
H        0.0858169099    1.7091932826   -0.4397160529
C        1.1161408529    1.4710576026   -0.7195680042
C        1.8691393944    0.8506913702    0.4451817841
O        1.1005785325   -0.2339304146    1.0478322576
C        0.1465206962    0.1025489924    1.9295315589
C       -0.6110045229   -1.1241881488    2.3931422288
O       -0.0937657565    1.2396952199    2.3032070373
O        1.1013262074    0.4679147659   -1.7573198677
C        0.2501001067    0.6386943536   -2.7901317172
C        0.6357664309   -0.2616920016   -3.9311566876
O       -0.6753290869    1.4370454305   -2.7882042701
C        1.7829084581    2.7717021128   -1.1926111085
O        3.1934604407    2.7353597441   -1.3252288320
P        3.9285220605    1.6480824672   -2.3848416858
O        4.2927466646    0.4107171901   -1.6028193284
O        5.3324088926    2.5077871978   -2.6050749876
O        3.1484289051    1.6442508522   -3.6678559892
H        2.0750337302    1.6067340612    1.2041032675
H        2.7933257839    0.3972478182    0.0849536788
H        0.0795190397   -1.9364317837    2.6342524855
H       -1.2570475487   -1.4710983042    1.5799503107
H       -1.2244225821   -0.8713422201    3.2586913134
H        0.8444504861   -1.2734769541   -3.5723975139
H        1.5721495700    0.1505950748   -4.3281639579
H       -0.1504011437   -0.2677916138   -4.6881345823
H        1.5631779970    3.5396578054   -0.4411025572
H        1.3173948366    3.0714989251   -2.1378855283
H        5.9810742379    2.1076030054   -2.0042908384
28   
torsion grid (75,)
H       -0.0208732492    1.7235372784   -0.2133614373
C        1.0260029650    1.5335919908   -0.4653402028
C        1.7725028265    0.9036702450    0.6979999787
O        1.0448623438   -0.2425047749    1.2312281649
C        0.0498632649    0.0081333402    2.0968371256
C       -0.6569138202   -1.2736817680    2.4848727498
O       -0.2573013312    1.1148681195    2.5098743655
O        1.0883410616    0.5600995157   -1.5336185000
C        0.2851872475    0.7506109833   -2.6019035222
C        0.7674630301   -0.0677343852   -3.7675898244
O       -0.6715738198    1.5106239019   -2.6083810781
C        1.6873190794    2.8534149980   -0.8879216666
O        3.1034203552    2.8034472981   -0.8631902199
P        3.9134417830    1.9727805022   -2.0883900420
O        4.4195404114    0.6820887787   -1.4982216394
O        5.2226825387    2.9887171014   -2.2195220932
O        3.0870661898    2.0733612540   -3.3388557299
H        1.9220792705    1.6356206425    1.4924444849
H        2.7280406479    0.5104652642    0.3512911895
H        0.0673953032   -2.0568715395    2.7231850674
H       -1.2520007350   -1.6229779055    1.6347062032
H       -1.3146596304   -1.0873180073    3.3345263806
H        1.0443264153   -1.0761187701   -3.4483792865
H        1.6781039217    0.4338622929   -4.1193254708
H        0.0057620687   -0.0964757148   -4.5487731104
H        1.3879834415    3.6209940886   -0.1633283408
H        1.3208802358    3.1413418151   -1.8773701369
H        5.9365401993    2.5582791450   -1.7225691870
28   
torsion grid (90,)
H       -0.1296906976    1.6519735734    0.2952376802
C        0.9185954411    1.3908238338    0.1265769526
C        1.5298324904    0.7411847764    1.3550434879
O        0.7145405245   -0.3702561112    1.8272444068
C       -0.3302409620   -0.0747004675    2.6191986045
C       -1.1290895743   -1.3206920343    2.9369318332
O       -0.6091512738    1.0432486811    3.0202196883
O        1.0058822436    0.3974759968   -0.9209272738
C        0.2446606827    0.5887297991   -2.0229449850
C        0.7536972812   -0.2462415919   -3.1642826472
O       -0.7004635242    1.3604843200   -2.0684097148
C        1.7035565990    2.6451422017   -0.2732794939
O        3.1005239046    2.4147266615   -0.2356983208
P        3.8898129670    1.8521689408   -1.6171287257
O        4.5923744290    0.5790019534   -1.2342590325
O        5.0604602561    3.0318586094   -1.7395697810
O        2.9445959805    2.0002590821   -2.7766619995
H        1.6395263788    1.4733509777    2.1560226233
H        2.4952336975    0.3069727100    1.1013667257
H       -0.4663692185   -2.1469796491    3.2065173604
H       -1.6857028302   -1.6221215780    2.0434921399
H       -1.8301892251   -1.1104875369    3.7453023459
H        1.0556995960   -1.2390667823   -2.8209392906
H        1.6506219964    0.2738071793   -3.5244896403
H       -0.0021310597   -0.3111913399   -3.9490913689
H        1.4794053290    3.4335445227    0.4579448695
H        1.3809823560    2.9759885379   -1.2639110061
H        5.8619247057    2.6449437833   -1.3526237918
28   
torsion grid (105,)
H        0.0415365441    1.7647285119    0.0964464644
C        1.0650930309    1.4157148687   -0.0662974627
C        1.6072703715    0.7289429124    1.1743666482
O        0.7241335958   -0.3390453657    1.6207311426
C       -0.3202902828    0.0077161767    2.3939616887
C       -1.1959668359   -1.1935800304    2.6782263493
O       -0.5421897941    1.1351645622    2.8027403384
O        1.0729416218    0.4136674821   -1.1059582410
C        0.3095740560    0.6537775270   -2.1983420522
C        0.7103417318   -0.2474510953   -3.3323101554
O       -0.5649450157    1.5041379883   -2.2386913808
C        1.9500765867    2.6017159184   -0.4618075152
O        3.3130480655    2.2163524356   -0.5082527841
P        4.0649372011    1.9959062163   -2.0015580730
O        5.1978629680    1.0491459649   -1.7375249544
O        4.7176554074    3.5186002783   -2.2269094672
O        2.9975319015    1.8294604292   -3.0454882272
H        1.7340858560    1.4524758316    1.9809905772
H        2.5553924435    0.2449895237    0.9479427801
H       -0.5880632296   -2.0598968263    2.9513382469
H       -1.7489629690   -1.4516514875    1.7691342055
H       -1.9015863000   -0.9527514643    3.4739652497
H        0.9164996252   -1.2604278627   -2.9759903595
H        1.6439776595    0.1773663044   -3.7212644425
H       -0.0661663238   -0.2512111887   -4.0993672087
H        1.8358832590    3.3839202630    0.3021594961
H        1.6078778290    2.9955216617   -1.4222068323
H        5.5963921231    3.4991176343   -1.8149642367
28   
torsion grid (120,)
H        0.2311741398    1.7519299387    0.1113938118
C        1.2258141139    1.3244224270   -0.0421401274
C        1.7145866570    0.6263832581    1.2133446307
O        0.7549820558   -0.3646179396    1.6781314504
C       -0.2586594373    0.0744974114    2.4466050036
C       -1.2250782409   -1.0498103613    2.7502109677
O       -0.3904984252    1.2221484072    2.8370296529
O        1.1632410195    0.3055302734   -1.0665161809
C        0.4374514976    0.5927340684   -2.1742640849
C        0.8313109040   -0.3057082746   -3.3123361898
O       -0.3929414643    1.4855384814   -2.2252330585
C        2.1970395394    2.4225099659   -0.4774212079
O        3.5139990338    1.8991971418   -0.5445444703
P        4.3037684646    1.9572866570   -2.0313157474
O        5.6137473104    1.2647510325   -1.8065082191
O        4.5937863937    3.6030022943   -2.1421284412
O        3.3015809672    1.6327128838   -3.1023664602
H        1.8916103778    1.3562823125    2.0046619859
H        2.6253494982    0.0701681704    1.0006777295
H       -0.6867527526   -1.9580720638    3.0327642273
H       -1.8012368018   -1.2747350849    1.8467032641
H       -1.9057508290   -0.7432182451    3.5450565392
H        0.9923478944   -1.3309797127   -2.9680756510
H        1.7895899848    0.0911547915   -3.6727996092
H        0.0746255155   -0.2691139642   -4.0980712567
H        2.1667783409    3.2328241870    0.2660150678
H        1.8686738305    2.8246340552   -1.4390493262
H        5.4388025687    3.7587270617   -1.6902905293
28   
torsion grid (135,)
H        0.3657833932    1.6877962322   -0.0100728061
C        1.3427865319    1.2247494989   -0.1709661882
C        1.8426063423    0.5573346828    1.0955446496
O        0.8656867410   -0.3839782172    1.6230565871
C       -0.1177701704    0.1185563278    2.3927131941
C       -1.1070845525   -0.9626020549    2.7697173649
O       -0.2084668969    1.2861766943    2.7316345631
O        1.2298242898    0.1752529879   -1.1654541770
C        0.5379657492    0.4800119928   -2.2931343599
C        1.0172754042   -0.3495820116   -3.4502255987
O       -0.3127008521    1.3525788125   -2.3467314782
C        2.3366962110    2.2617971164   -0.6903519080
O        3.6124599611    1.6521417817   -0.8007156442
P        4.4803940131    1.9538144565   -2.2104131352
O        5.8122204406    1.2964409348   -2.0094905882
O        4.6917925959    3.6103510351   -2.0758448602
O        3.5471939745    1.7292067121   -3.3672151204
H        2.0636982022    1.3108836423    1.8530138888
H        2.7292747096   -0.0356607161    0.8807210055
H       -0.5874716936   -1.8724502565    3.0807479918
H       -1.7115903794   -1.2110021143    1.8912383748
H       -1.7590245936   -0.6010149488    3.5655152321
H        1.2487633048   -1.3711237431   -3.1375098809
H        1.9521714095    0.1283003605   -3.7785736998
H        0.2794641732   -0.3394179241   -4.2545111660
H        2.3815534576    3.1047361235    0.0157730965
H        1.9846302969    2.6413745503   -1.6532137133
H        5.5284867729    3.7343097251   -1.5994266258
28   
torsion grid (150,)
H        0.6286094372    2.0383765972   -0.0803198151
C        1.5819341845    1.5061587368   -0.0801963123
C        1.6836678133    0.5988712897    1.1369029638
O        0.5845728338   -0.3493753844    1.1678794937
C       -0.6023442356    0.1125522143    1.6203038475
C       -1.7042647648   -0.8818734519    1.3488860794
O       -0.7585800087    1.1963034245    2.1541963716
O        1.6414025577    0.6715332476   -1.2736887705
C        0.4964401443    0.3160343159   -1.8726421234
C        0.7863902950   -0.5390671435   -3.0860304773
O       -0.6257685707    0.6282318205   -1.5008355812
C        2.7324745029    2.5002377787   -0.1398420218
O        3.9552632480    1.8319235710    0.1000603043
P        5.3424267060    2.4577785739   -0.6367464639
O        6.4231752986    1.4617247631   -0.3381100849
O        5.6014283232    3.7933203101    0.3463451350
O        4.9485727086    2.9772530294   -1.9856776562
H        1.6843491316    1.1970423201    2.0498557726
H        2.5891363946   -0.0017371289    1.0795567451
H       -1.3542242890   -1.9078674471    1.4859505480
H       -2.0011224043   -0.7585932615    0.3022114729
H       -2.5578333351   -0.6734108947    1.9954642182
H        1.1931537471   -1.5012090043   -2.7585986642
H        1.5453638857   -0.0610123765   -3.7104699411
H       -0.1326206090   -0.7009625739   -3.6502934117
H        2.5591015301    3.2716912434    0.6270233760
H        2.7399841598    2.9844200680   -1.1227363336
H        6.1809158172    3.4861787349    1.0620135778
28   
torsion grid (165,)
H        0.5857721064    2.0248182844   -0.1496667029
C        1.5724044020    1.5732685555   -0.2686036328
C        1.9379956077    0.7605526220    0.9647402229
O        0.9500005839   -0.2730131933    1.2179707599
C       -0.1975261878    0.1177774315    1.8164198772
C       -1.2243519432   -0.9874481111    1.7824593767
O       -0.3791365607    1.2221722352    2.2965475967
O        1.5247183931    0.6668681757   -1.4116458022
C        0.3387040656    0.1696235297   -1.7900925005
C        0.5128664071   -0.7600873242   -2.9707331584
O       -0.7359312221    0.4178900399   -1.2629971567
C        2.6048159950    2.6514954876   -0.5567074088
O        3.9027963566    2.0955116671   -0.4806768077
P        5.1596461446    3.0120860573   -1.1421399828
O        6.3806548075    2.1506515530   -1.0139165984
O        5.2652970420    4.2136030208    0.0259995184
O        4.6438188498    3.6583515759   -2.3912687599
H        2.0200140660    1.4176679889    1.8323197955
H        2.8765406155    0.2352123906    0.8010932396
H       -0.7588049106   -1.9653733246    1.9270555166
H       -1.6857252011   -0.9709566550    0.7896649376
H       -1.9879183048   -0.8055410829    2.5400606433
H        1.0248468675   -1.6686903287   -2.6375981942
H        1.1410453211   -0.2925593469   -3.7329940346
H       -0.4634786935   -1.0199793691   -3.3811513818
H        2.4809366571    3.4517422692    0.1897148842
H        2.4212689834    3.0809669771   -1.5482033916
H        5.9175237523    3.8963450266    0.6711662308
28   
torsion grid (180,)
H        0.5772732670    2.1230152642   -0.5098852753
C        1.5634121648    1.6772546706   -0.6521828644
C        1.9869414406    0.9122523880    0.5932208260
O        1.0269236686   -0.1284931740    0.9152802492
C       -0.1023126645    0.2599476410    1.5494229860
C       -1.1076840269   -0.8647303235    1.5928765948
O       -0.2860038011    1.3750391425    2.0026843389
O        1.4794831815    0.7303609220   -1.7612973991
C        0.2852213804    0.2040191476   -2.0690762008
C        0.4230025251   -0.7762235951   -3.2132861181
O       -0.7704882681    0.4639578377   -1.5110158873
C        2.5722560392    2.7543648488   -1.0158902151
O        3.8758419826    2.2059049448   -0.9862713731
P        5.1344326507    3.2671364998   -1.3672714882
O        6.3827547313    2.4386250834   -1.2978725527
O        5.0948614074    4.2331099633    0.0070207970
O        4.6818017106    4.1154652669   -2.5158856966
H        2.0879397285    1.6003424459    1.4343445216
H        2.9282615710    0.3973601895    0.4140479485
H       -0.6173570617   -1.8289101356    1.7475055028
H       -1.6113550396   -0.8880834674    0.6210103416
H       -1.8418932541   -0.6730822471    2.3766456443
H        0.9607804625   -1.6624830018   -2.8611762761
H        1.0121355653   -0.3371119930   -4.0222490634
H       -0.5658480435   -1.0660668491   -3.5701113127
H        2.4754110015    3.5699488882   -0.2833782434
H        2.3390668685    3.1630537813   -2.0060475594
H        5.7245568481    3.8312420224    0.6268960453
