19   
torsion grid (-45,)
C        1.9403164084   -1.0010793127   -0.1554910206
C        0.8317001889   -0.4323244991    0.4852143136
C        2.9512699560   -1.5907905296    0.5992441895
C        0.7680343858   -0.4718269357    1.8821155533
C        2.8921850462   -1.6495307844    2.0115236108
C        1.7682990491   -1.0698690603    2.6624102440
C        3.9915032903   -2.2991169556    2.7166958350
C        1.6283746726   -1.0700504203    4.1658629290
N        5.2208051704   -2.5431614728    2.1236934922
N        3.9642373169   -2.7768462739    4.0173498193
N        5.9475051039   -2.8970266865    3.2172112337
N        5.0948322428   -3.5386246827    4.0170205865
H        2.0178172495   -0.9794889005   -1.2414762410
H        0.0345376240    0.0357735259   -0.0892030369
H        3.8231675179   -2.0206781043    0.1154217480
H       -0.0872698479   -0.0258466123    2.3889743750
H        1.5658769612   -2.0892564753    4.5568133783
H        2.5086562964   -0.6314322481    4.6477530961
H        0.7388815908   -0.5048075696    4.4682574538
19   
torsion grid (-30,)
C        1.9437535052   -0.9904895411   -0.1478502675
C        0.8329091632   -0.4281298584    0.4932357583
C        2.9528468610   -1.5835069517    0.6076704752
C        0.7648900721   -0.4752292814    1.8890904051
C        2.8904539991   -1.6471256647    2.0181273374
C        1.7657996448   -1.0736279849    2.6699303610
C        3.9951485412   -2.3005799490    2.7232367051
C        1.6181515961   -1.0773405692    4.1730290491
N        5.1852707168   -2.5906549622    2.1186662385
N        3.9902826953   -2.7218258632    4.0218287236
N        5.9508876053   -3.0144075059    3.1461682638
N        5.1331215418   -3.4403798126    4.1110312589
H        2.0237860059   -0.9637577231   -1.2334593564
H        0.0359319670    0.0410590638   -0.0807006371
H        3.8257641495   -2.0135746034    0.1263068858
H       -0.0929901364   -0.0339178462    2.3953860282
H        1.5504078103   -2.0967780643    4.5622478121
H        2.4973086857   -0.6442616221    4.6603308945
H        0.7276328950   -0.5109078391    4.4704572974
19   
torsion grid (-15,)
C        1.9537530225   -0.9733981082   -0.1560790281
C        0.8384397472   -0.4188029021    0.4832669986
C        2.9590077287   -1.5711469606    0.6009854303
C        0.7619870534   -0.4780324316    1.8777201617
C        2.8913815746   -1.6433845778    2.0104479127
C        1.7615044847   -1.0781896483    2.6601859578
C        3.9999444585   -2.3001299875    2.7147932372
C        1.5972272441   -1.0937145756    4.1616547366
N        5.1381341023   -2.6856706741    2.0803519241
N        4.0377409317   -2.6167454164    4.0345602181
N        5.9173637099   -3.1586636215    3.0653765158
N        5.1918632859   -3.2939566443    4.1745280896
H        2.0397439247   -0.9385259240   -1.2409661055
H        0.0433772570    0.0530932874   -0.0911952270
H        3.8334573248   -2.0004964685    0.1221469390
H       -0.1009036323   -0.0446858999    2.3822626565
H        1.5421298375   -2.1164430824    4.5446703543
H        2.4629023585   -0.6505964746    4.6621734997
H        0.6918710166   -0.5464284467    4.4504172614
19   
torsion grid (0,)
C        1.9505898979   -0.9517063502   -0.1144842718
C        0.8374070259   -0.4014392948    0.5318658619
C        2.9551566599   -1.5597716304    0.6354023593
C        0.7615998156   -0.4769137376    1.9254719309
C        2.8910610311   -1.6428291127    2.0441879666
C        1.7619132159   -1.0848505819    2.7011886295
C        4.0034407245   -2.3048379092    2.7400029452
C        1.5944660985   -1.1199693001    4.2020227888
N        5.0647524843   -2.8262941828    2.0800889140
N        4.1244832631   -2.4813965640    4.0759517444
N        5.8515591737   -3.3333286234    3.0391625101
N        5.2915157817   -3.1283268119    4.2330688969
H        2.0349820855   -0.9068466378   -1.1991137137
H        0.0423375661    0.0777511780   -0.0365546477
H        3.8254556730   -1.9917651372    0.1515471834
H       -0.1018868108   -0.0507624169    2.4350008426
H        1.6037255155   -2.1461493967    4.5797742216
H        2.4289469094   -0.6261924869    4.7075849821
H        0.6545605163   -0.6340228833    4.4902568149
19   
torsion grid (15,)
C        1.9720914212   -0.9370546921   -0.1483161153
C        0.8546108254   -0.3872565454    0.4913869185
C        2.9684600427   -1.5521304275    0.6066158407
C        0.7654471554   -0.4716389912    1.8837868387
C        2.8939536806   -1.6388708419    2.0149093054
C        1.7589463284   -1.0839192883    2.6645327407
C        3.9997904366   -2.3016045398    2.7179838861
C        1.5778372102   -1.1322555062    4.1633614029
N        4.9893750114   -2.9604282337    2.0597262813
N        4.1920995092   -2.3348504586    4.0615954564
N        5.7416974492   -3.4844239291    3.0398829744
N        5.3792103104   -2.9515470787    4.2058113753
H        2.0653183920   -0.8874835370   -1.2320329421
H        0.0656088253    0.0965278805   -0.0815411980
H        3.8384957787   -1.9890131283    0.1265533999
H       -0.1033440548   -0.0498045921    2.3879610398
H        1.6468309782   -2.1565558548    4.5406005861
H        2.3744058175   -0.5874115839    4.6774974148
H        0.6060455849   -0.7076290329    4.4424511472
19   
torsion grid (30,)
C        1.9801742805   -0.9203885310   -0.1370734053
C        0.8583667643   -0.3791540602    0.5030469870
C        2.9750192318   -1.5408106429    0.6153864576
C        0.7635586304   -0.4773159124    1.8947039390
C        2.8961667406   -1.6369190039    2.0231428190
C        1.7566775290   -1.0912535310    2.6733226217
C        3.9969168830   -2.2985031910    2.7267548854
C        1.5749628928   -1.1599555783    4.1710959378
N        4.9322040288   -3.0572630964    2.0821302639
N        4.2554949339   -2.2367715062    4.0659729836
N        5.6338160777   -3.6005939300    3.0988224937
N        5.4742592955   -2.8147374414    4.1660340507
H        2.0770240611   -0.8612212492   -1.2200185121
H        0.0703723771    0.1073778528   -0.0688448420
H        3.8451007939   -1.9753468569    0.1328846242
H       -0.1093639252   -0.0643765229    2.3992480429
H        1.6588602649   -2.1886515770    4.5353936374
H        2.3625480931   -0.6085922378    4.6916638514
H        0.5954845880   -0.7574164525    4.4555781551
19   
torsion grid (45,)
C        1.9876709014   -0.9110114587   -0.1431610708
C        0.8620342048   -0.3746169683    0.4957792263
C        2.9806240449   -1.5348586233    0.6080126461
C        0.7632281959   -0.4805529656    1.8871680687
C        2.8993671607   -1.6363249670    2.0167662995
C        1.7555545538   -1.0943186520    2.6653828545
C        3.9941014298   -2.2953491281    2.7203283727
C        1.5749396745   -1.1716051719    4.1624982032
N        4.9119750677   -3.1124649723    2.0783620447
N        4.2872304653   -2.1844408901    4.0703513756
N        5.5289342010   -3.6700378738    3.1542413061
N        5.5415207815   -2.7182912676    4.0882694227
H        2.0873340917   -0.8470515401   -1.2256661830
H        0.0750202000    0.1129711941   -0.0764103191
H        3.8500272093   -1.9687087873    0.1232429948
H       -0.1120991060   -0.0721373886    2.3915005340
H        1.6571127866   -2.2033113269    4.5207473111
H        2.3639414095   -0.6234686209    4.6845552592
H        0.5958606909   -0.7717704078    4.4517633944
