14   
torsion grid (-165,)
C        0.2456321813   -0.4254536568    0.9884539805
C        1.6394981683   -0.6734019726    2.9453433900
C       -0.6664031965   -1.3031031894    1.5841029189
C        1.4233694422   -0.1287471697    1.6796674707
C        0.6659299216   -1.5575036042    3.4027662560
N       -0.4406778787   -1.9078343645    2.7592003529
O        2.0349553091   -1.5853145390    5.6757337745
O        1.4982174629   -3.7603139510    4.3493659176
S        0.9009770822   -2.3273749951    5.0522149139
Cl       2.5962642819    0.9592676083    0.9819704008
H        0.0257922931    0.0391802648    0.0330314902
H        2.5046793439   -0.4391855143    3.5575430865
H       -1.6696365515   -1.3849243951    1.1705872566
H        1.3738513831   -4.4775470581    4.9994070235
14   
torsion grid (-150,)
C        0.2699596801   -0.4487392532    1.0212937710
C        1.6257106413   -0.7115698738    3.0028656936
C       -0.6623229174   -1.3247281642    1.5914294568
C        1.4467829726   -0.1779109923    1.7274180620
C        0.6454782278   -1.6067338068    3.4292345148
N       -0.4240766265   -1.9765632339    2.7413521105
O        1.9277394023   -1.6240465378    5.7508603222
O        1.5326251472   -3.7941407946    4.3666825486
S        0.8503583028   -2.4007280425    5.0718430545
Cl       2.6426168771    0.8998669478    1.0523428205
H        0.0555249666    0.0573331757    0.0856476914
H        2.4663656332   -0.4640213778    3.6431224823
H       -1.6992959340   -1.2232895232    1.2749205764
H        1.4103544028   -4.5298314017    4.9962290815
14   
torsion grid (-135,)
C        0.2732324718   -0.4776276140    0.9953973835
C        1.6113237523   -0.7080213173    2.9942905674
C       -0.6704469359   -1.3443989142    1.5679889754
C        1.4525609845   -0.2093383136    1.7027016445
C        0.6382788407   -1.6191103410    3.4129598972
N       -0.3928666595   -2.0260626078    2.6952778414
O        1.8683978033   -1.5966182669    5.7600080023
O        1.5920217013   -3.7761250041    4.3610434669
S        0.8389229102   -2.4146776777    5.0559761044
Cl       2.6559941436    0.8567321311    1.0216391809
H        0.0523876443    0.0519671759    0.0740247003
H        2.4311332262   -0.4291956699    3.6482220520
H       -1.7080798048   -1.0803304105    1.3615365086
H        1.4812542058   -4.5203127155    4.9827160546
14   
torsion grid (-120,)
C        0.2771685395   -0.5051718540    0.9633901687
C        1.5906807610   -0.6946241537    2.9839911014
C       -0.6842589374   -1.3533216833    1.5364307146
C        1.4584760321   -0.2393968492    1.6758884469
C        0.6203345155   -1.6212983617    3.3918378735
N       -0.3675908858   -2.0655050111    2.6449877180
O        1.7917795472   -1.5575081763    5.7662189182
O        1.6480448566   -3.7418843016    4.3535441262
S        0.8183112515   -2.4197432000    5.0358219617
Cl       2.6734514193    0.8071554550    0.9839799301
H        0.0532343384    0.0462463046    0.0551482242
H        2.3858272113   -0.3839224851    3.6532990840
H       -1.6991500981   -0.9544631873    1.4786727471
H        1.5505463844   -4.4958915100    4.9655779204
14   
torsion grid (-105,)
C        0.2858571107   -0.5336918598    0.9673884994
C        1.5770541144   -0.6923200738    3.0070421666
C       -0.7047683009   -1.3504676401    1.5466924820
C        1.4718878274   -0.2777446600    1.6847520223
C        0.6018823020   -1.6253493932    3.4101506806
N       -0.3493448555   -2.0860117710    2.6365087856
O        1.6905477510   -1.5240762153    5.8193677204
O        1.7291296064   -3.6950842712    4.3789703609
S        0.7967231761   -2.4364123563    5.0493461913
Cl       2.7059913039    0.7403205744    0.9831809095
H        0.0689861659    0.0380301617    0.0694453383
H        2.3535347065   -0.3570744359    3.6857890089
H       -1.6452889440   -0.7939692109    1.5891399346
H        1.6592001715   -4.4629946848    4.9774537577
14   
torsion grid (105,)
C        0.1205769540   -0.2731320392    1.0693978581
C        1.6907232844   -0.6590942697    2.8699508830
C       -0.7492221923   -1.2196600026    1.6429965906
C        1.3109128025    0.0640424707    1.7458909135
C        0.6835608680   -1.4849001627    3.4106925316
N       -0.5384269428   -1.5548791286    2.9468067978
O        2.3094085980   -1.7852713925    5.5036678990
O        1.1290949372   -3.7901004472    4.3435826192
S        0.9647269444   -2.2528310026    5.0606049921
Cl       2.3971780942    1.2425902936    1.0513596463
H       -0.0316831626    0.0641480257    0.0481506282
H        2.6692625954   -0.5857206532    3.3313454198
H       -0.9256417569   -2.0312472374    0.9318875508
H        0.9797757653   -4.4541314746    5.0428571928
14   
torsion grid (120,)
C        0.1531439854   -0.3002987378    1.0527717504
C        1.6861690318   -0.6520402634    2.8890055754
C       -0.7273481126   -1.2212351991    1.6419800994
C        1.3354116965    0.0377178307    1.7329426986
C        0.6857814226   -1.4845432010    3.4148135044
N       -0.5296217621   -1.6051347285    2.9270725889
O        2.2898956169   -1.7557225445    5.5242410760
O        1.1820008100   -3.7863662288    4.3375358541
S        0.9649138498   -2.2584017887    5.0599642961
Cl       2.4377246311    1.1984068752    1.0346276873
H       -0.0111881715    0.0462989207    0.0370333876
H        2.6484761653   -0.5531334866    3.3796599765
H       -1.0870605128   -1.9858597609    0.9506809620
H        1.0364838452   -4.4579518694    5.0303792788
14   
torsion grid (135,)
C        0.1782801569   -0.3162451067    1.0395858344
C        1.6745405955   -0.6466167420    2.9079927871
C       -0.7105699776   -1.2237982213    1.6342812060
C        1.3549184967    0.0161000579    1.7249126778
C        0.6833258604   -1.4932838803    3.4142759345
N       -0.5168050424   -1.6641661874    2.8926524319
O        2.2560715357   -1.7313987659    5.5472126905
O        1.2333703491   -3.7886679327    4.3284485902
S        0.9562707667   -2.2731574613    5.0557825314
Cl       2.4747987918    1.1624972219    1.0319189033
H        0.0029365049    0.0556061847    0.0351004144
H        2.6183661355   -0.5214741635    3.4284171318
H       -1.2377284780   -1.8717915543    0.9338668853
H        1.0948368777   -4.4689180564    5.0142825601
14   
torsion grid (150,)
C        0.2079367771   -0.3250435457    1.0266400431
C        1.6663907055   -0.6403816586    2.9263248245
C       -0.6921870810   -1.2189734745    1.6203656552
C        1.3799183205   -0.0038187650    1.7193484641
C        0.6783257919   -1.4966382870    3.4116723879
N       -0.5032866602   -1.7138761103    2.8546001506
O        2.2008812366   -1.6962914934    5.5828830869
O        1.2971028807   -3.7807481766    4.3153590215
S        0.9386432970   -2.2856268132    5.0494974196
Cl       2.5195225266    1.1262580975    1.0327153943
H        0.0237123303    0.0694495400    0.0327512486
H        2.5895866953   -0.4910633969    3.4769616795
H       -1.3741486431   -1.7545264823    0.9618301913
H        1.1580163768   -4.4748529217    4.9870813168
14   
torsion grid (165,)
C        0.2201687454   -0.3688576196    1.0066638785
C        1.6546259795   -0.6482234352    2.9297162948
C       -0.6812342822   -1.2524740274    1.6094715210
C        1.3923563503   -0.0499558845    1.6974481054
C        0.6722877635   -1.5096908821    3.4117631100
N       -0.4891989574   -1.7773510120    2.8282629162
O        2.1512840337   -1.6372145041    5.6161369903
O        1.3563092697   -3.7646243534    4.3455658272
S        0.9250023997   -2.2788103175    5.0594027121
Cl       2.5429092647    1.0622020958    1.0006442708
H        0.0220060248    0.0401766632    0.0215776188
H        2.5594753266   -0.4674702691    3.5012637037
H       -1.5013754972   -1.6585281376    1.0208064570
H        1.2248207769   -4.4593303972    5.0182359478
14   
torsion grid (180,)
C        0.2269817909   -0.4150592511    0.9874049873
C        1.6497280740   -0.6685595513    2.9226196103
C       -0.6740357417   -1.2951840365    1.5947312157
C        1.4037049631   -0.1020925612    1.6719048114
C        0.6760460330   -1.5412719558    3.3993939367
N       -0.4625205201   -1.8571862739    2.7928331895
O        2.1161533822   -1.6075558783    5.6295651848
O        1.4397308449   -3.7671516773    4.3449863464
S        0.9302437518   -2.3029779042    5.0502195295
Cl       2.5599775951    0.9981816071    0.9655107987
H        0.0111557965    0.0168306029    0.0159265407
H        2.5372099150   -0.4570477747    3.5107362774
H       -1.6059000934   -1.5521347733    1.0954726418
H        1.3161455502   -4.4697586703    5.0109101349
