
  -OEChem-12122420533D

 26 26  0     0  0  0  0  0  0999 V2000
    5.0113   -0.3093   -4.0636 C   0  0  0  0  0  0  0  0  0  0  0  0
    3.9499    0.5205   -4.1710 C   0  0  0  0  0  0  0  0  0  0  0  0
    5.5500    1.7020   -5.3909 C   0  0  0  0  0  0  0  0  0  0  0  0
    2.2681   -0.8144   -2.7948 C   0  0  0  0  0  0  0  0  0  0  0  0
    0.5752   -1.9015   -1.5469 C   0  0  0  0  0  0  0  0  0  0  0  0
    8.5473    3.9061   -5.9734 C   0  0  0  0  0  0  0  0  0  0  0  0
    2.5483    0.4234   -3.6445 C   0  0  0  0  0  0  0  0  0  0  0  0
    4.2874    1.6572   -4.9306 N   0  3  0  0  0  0  0  0  0  0  0  0
    6.0268    2.7663   -6.0913 N   0  0  0  0  0  0  0  0  0  0  0  0
    3.0696   -1.6929   -2.5466 O   0  0  0  0  0  0  0  0  0  0  0  0
    8.0888    1.4337   -6.8559 O   0  0  0  0  0  0  0  0  0  0  0  0
    7.2266    3.4196   -8.2428 O   0  0  0  0  0  0  0  0  0  0  0  0
    1.0033   -0.7787   -2.3705 O   0  0  0  0  0  0  0  0  0  0  0  0
    6.4161    0.2850   -4.9213 S   0  0  0  0  0  0  0  0  0  0  0  0
    7.5743    2.7880   -6.9853 S   0  0  0  0  0  0  0  0  0  0  0  0
    5.0415   -1.2572   -3.5460 H   0  0  0  0  0  0  0  0  0  0  0  0
   -0.4652   -1.6940   -1.3051 H   0  0  0  0  0  0  0  0  0  0  0  0
    1.1855   -1.9511   -0.6440 H   0  0  0  0  0  0  0  0  0  0  0  0
    0.6689   -2.8304   -2.1113 H   0  0  0  0  0  0  0  0  0  0  0  0
    9.5194    3.9806   -6.4665 H   0  0  0  0  0  0  0  0  0  0  0  0
    8.0524    4.8770   -5.9528 H   0  0  0  0  0  0  0  0  0  0  0  0
    8.6519    3.4725   -4.9788 H   0  0  0  0  0  0  0  0  0  0  0  0
    2.3081    1.3041   -3.0372 H   0  0  0  0  0  0  0  0  0  0  0  0
    1.8326    0.4228   -4.4753 H   0  0  0  0  0  0  0  0  0  0  0  0
    3.6248    2.4121   -5.0913 H   0  0  0  0  0  0  0  0  0  0  0  0
    5.3453    3.3985   -6.5110 H   0  0  0  0  0  0  0  0  0  0  0  0
  1  2  2  0  0  0  0
  1 14  1  0  0  0  0
  1 16  1  0  0  0  0
  2  7  1  0  0  0  0
  2  8  1  0  0  0  0
  3  8  2  0  0  0  0
  3  9  1  0  0  0  0
  3 14  1  0  0  0  0
  4  7  1  0  0  0  0
  4 10  2  0  0  0  0
  4 13  1  0  0  0  0
  5 13  1  0  0  0  0
  5 17  1  0  0  0  0
  5 18  1  0  0  0  0
  5 19  1  0  0  0  0
  6 15  1  0  0  0  0
  6 20  1  0  0  0  0
  6 21  1  0  0  0  0
  6 22  1  0  0  0  0
  7 23  1  0  0  0  0
  7 24  1  0  0  0  0
  8 25  1  0  0  0  0
  9 15  1  0  0  0  0
  9 26  1  0  0  0  0
 11 15  2  0  0  0  0
 12 15  2  0  0  0  0
M  CHG  1   8   1
M  END
$$$$
