
  -OEChem-12102412493D

 26 26  0     0  0  0  0  0  0999 V2000
    4.8913   -0.1685   -3.9551 C   0  0  0  0  0  0  0  0  0  0  0  0
    3.7810    0.4323   -4.4416 C   0  0  0  0  0  0  0  0  0  0  0  0
    5.3611    1.3004   -5.8819 C   0  0  0  0  0  0  0  0  0  0  0  0
    1.3026    0.4809   -4.9912 C   0  0  0  0  0  0  0  0  0  0  0  0
   -0.9413   -0.0008   -5.5675 C   0  0  0  0  0  0  0  0  0  0  0  0
    5.3116    4.6226   -7.6716 C   0  0  0  0  0  0  0  0  0  0  0  0
    2.3760    0.3259   -3.9183 C   0  0  0  0  0  0  0  0  0  0  0  0
    4.0740    1.2628   -5.5307 N   0  3  0  0  0  0  0  0  0  0  0  0
    5.8956    2.0334   -6.8953 N   0  0  0  0  0  0  0  0  0  0  0  0
    1.4550    1.1465   -6.0062 O   0  0  0  0  0  0  0  0  0  0  0  0
    5.6903    2.6047   -9.3736 O   0  0  0  0  0  0  0  0  0  0  0  0
    3.5944    2.5956   -7.8911 O   0  0  0  0  0  0  0  0  0  0  0  0
    0.1867   -0.1485   -4.6528 O   0  0  0  0  0  0  0  0  0  0  0  0
    6.3233    0.3034   -4.8438 S   0  0  0  0  0  0  0  0  0  0  0  0
    4.9914    2.9209   -8.1448 S   0  0  0  0  0  0  0  0  0  0  0  0
    4.9728   -0.8555   -3.1236 H   0  0  0  0  0  0  0  0  0  0  0  0
   -1.7477   -0.5715   -5.1123 H   0  0  0  0  0  0  0  0  0  0  0  0
   -0.6751   -0.4044   -6.5450 H   0  0  0  0  0  0  0  0  0  0  0  0
   -1.2055    1.0537   -5.6567 H   0  0  0  0  0  0  0  0  0  0  0  0
    4.7872    5.2377   -8.4067 H   0  0  0  0  0  0  0  0  0  0  0  0
    4.9102    4.7878   -6.6719 H   0  0  0  0  0  0  0  0  0  0  0  0
    6.3859    4.8006   -7.7201 H   0  0  0  0  0  0  0  0  0  0  0  0
    2.2461   -0.6182   -3.3884 H   0  0  0  0  0  0  0  0  0  0  0  0
    2.1968    1.1256   -3.1877 H   0  0  0  0  0  0  0  0  0  0  0  0
    3.2995    1.6433   -6.1038 H   0  0  0  0  0  0  0  0  0  0  0  0
    6.8394    1.7921   -7.1945 H   0  0  0  0  0  0  0  0  0  0  0  0
  1  2  2  0  0  0  0
  1 14  1  0  0  0  0
  1 16  1  0  0  0  0
  2  7  1  0  0  0  0
  2  8  1  0  0  0  0
  3  8  2  0  0  0  0
  3  9  1  0  0  0  0
  3 14  1  0  0  0  0
  4  7  1  0  0  0  0
  4 10  2  0  0  0  0
  4 13  1  0  0  0  0
  5 13  1  0  0  0  0
  5 17  1  0  0  0  0
  5 18  1  0  0  0  0
  5 19  1  0  0  0  0
  6 15  1  0  0  0  0
  6 20  1  0  0  0  0
  6 21  1  0  0  0  0
  6 22  1  0  0  0  0
  7 23  1  0  0  0  0
  7 24  1  0  0  0  0
  8 25  1  0  0  0  0
  9 15  1  0  0  0  0
  9 26  1  0  0  0  0
 11 15  2  0  0  0  0
 12 15  2  0  0  0  0
M  CHG  1   8   1
M  END
$$$$
