
  -OEChem-12122420533D

  7  6  0     0  0  0  0  0  0999 V2000
    1.0444   -0.4699   -1.8743 C   0  0  0  0  0  0  0  0  0  0  0  0
    0.1730   -0.8681   -0.6359 C   0  0  0  0  0  0  0  0  0  0  0  0
    1.3596    0.7528   -1.9450 O   0  5  0  0  0  0  0  0  0  0  0  0
    1.3078   -1.4109   -2.6772 O   0  0  0  0  0  0  0  0  0  0  0  0
   -0.8886   -0.7542   -0.8980 H   0  0  0  0  0  0  0  0  0  0  0  0
    0.3762   -0.2131    0.2198 H   0  0  0  0  0  0  0  0  0  0  0  0
    0.3356   -1.9160   -0.3561 H   0  0  0  0  0  0  0  0  0  0  0  0
  1  2  1  0  0  0  0
  1  3  1  0  0  0  0
  1  4  2  0  0  0  0
  2  5  1  0  0  0  0
  2  6  1  0  0  0  0
  2  7  1  0  0  0  0
M  CHG  1   3  -1
M  END
$$$$
