
  -OEChem-12122420533D

 18 17  0     0  0  0  0  0  0999 V2000
    0.8233    0.4769    0.3370 C   0  0  0  0  0  0  0  0  0  0  0  0
   -0.0726    1.9010    2.0978 C   0  0  0  0  0  0  0  0  0  0  0  0
   -2.5356   -2.3164    0.0308 C   0  0  0  0  0  0  0  0  0  0  0  0
   -0.7306   -1.0693   -0.8682 C   0  0  0  0  0  0  0  0  0  0  0  0
   -0.2827    0.9158    1.0406 N   0  0  0  0  0  0  0  0  0  0  0  0
    0.5567   -0.5253   -0.5956 N   0  0  0  0  0  0  0  0  0  0  0  0
    1.9532    0.9419    0.4701 O   0  0  0  0  0  0  0  0  0  0  0  0
   -1.2343   -1.7927    0.2670 O   0  0  0  0  0  0  0  0  0  0  0  0
    0.4960    1.4946    2.9435 H   0  0  0  0  0  0  0  0  0  0  0  0
   -1.0473    2.2488    2.4496 H   0  0  0  0  0  0  0  0  0  0  0  0
    0.4817    2.7494    1.6944 H   0  0  0  0  0  0  0  0  0  0  0  0
   -2.8458   -2.8269    0.9445 H   0  0  0  0  0  0  0  0  0  0  0  0
   -2.5319   -3.0377   -0.7996 H   0  0  0  0  0  0  0  0  0  0  0  0
   -3.2575   -1.5185   -0.2002 H   0  0  0  0  0  0  0  0  0  0  0  0
   -1.4371   -0.2625   -1.1122 H   0  0  0  0  0  0  0  0  0  0  0  0
   -0.6521   -1.7424   -1.7316 H   0  0  0  0  0  0  0  0  0  0  0  0
   -0.9698    0.1939    1.2331 H   0  0  0  0  0  0  0  0  0  0  0  0
    1.3812   -1.0251   -0.8987 H   0  0  0  0  0  0  0  0  0  0  0  0
  1  5  1  0  0  0  0
  1  6  1  0  0  0  0
  1  7  2  0  0  0  0
  2  5  1  0  0  0  0
  2  9  1  0  0  0  0
  2 10  1  0  0  0  0
  2 11  1  0  0  0  0
  3  8  1  0  0  0  0
  3 12  1  0  0  0  0
  3 13  1  0  0  0  0
  3 14  1  0  0  0  0
  4  6  1  0  0  0  0
  4  8  1  0  0  0  0
  4 15  1  0  0  0  0
  4 16  1  0  0  0  0
  5 17  1  0  0  0  0
  6 18  1  0  0  0  0
M  END
$$$$
