
  -OEChem-12102412493D

 26 26  0     0  0  0  0  0  0999 V2000
    5.4507    0.3128   -3.8038 C   0  0  0  0  0  0  0  0  0  0  0  0
    4.2667    0.8843   -4.1167 C   0  0  0  0  0  0  0  0  0  0  0  0
    5.6374    1.7908   -5.7732 C   0  0  0  0  0  0  0  0  0  0  0  0
    2.8295   -0.1660   -2.2901 C   0  0  0  0  0  0  0  0  0  0  0  0
    1.3379   -1.0378   -0.6713 C   0  0  0  0  0  0  0  0  0  0  0  0
    7.6211    1.8885   -8.9712 C   0  0  0  0  0  0  0  0  0  0  0  0
    2.9091    0.7804   -3.4861 C   0  0  0  0  0  0  0  0  0  0  0  0
    4.4039    1.7188   -5.2426 N   0  3  0  0  0  0  0  0  0  0  0  0
    5.9013    2.5152   -6.8938 N   0  0  0  0  0  0  0  0  0  0  0  0
    3.7579   -0.8039   -1.8352 O   0  0  0  0  0  0  0  0  0  0  0  0
    7.4401    4.3063   -7.8517 O   0  0  0  0  0  0  0  0  0  0  0  0
    8.4352    2.3724   -6.4802 O   0  0  0  0  0  0  0  0  0  0  0  0
    1.5792   -0.1799   -1.8237 O   0  0  0  0  0  0  0  0  0  0  0  0
    6.7430    0.8227   -4.8681 S   0  0  0  0  0  0  0  0  0  0  0  0
    7.5389    2.9049   -7.4944 S   0  0  0  0  0  0  0  0  0  0  0  0
    5.6456   -0.3653   -2.9855 H   0  0  0  0  0  0  0  0  0  0  0  0
    0.2807   -0.9161   -0.4450 H   0  0  0  0  0  0  0  0  0  0  0  0
    1.9580   -0.7143    0.1660 H   0  0  0  0  0  0  0  0  0  0  0  0
    1.5679   -2.0732   -0.9269 H   0  0  0  0  0  0  0  0  0  0  0  0
    8.6047    2.0794   -9.4068 H   0  0  0  0  0  0  0  0  0  0  0  0
    7.5255    0.8428   -8.6789 H   0  0  0  0  0  0  0  0  0  0  0  0
    6.8318    2.2023   -9.6542 H   0  0  0  0  0  0  0  0  0  0  0  0
    2.5729    1.7683   -3.1494 H   0  0  0  0  0  0  0  0  0  0  0  0
    2.1717    0.4439   -4.2245 H   0  0  0  0  0  0  0  0  0  0  0  0
    3.6103    2.2093   -5.6477 H   0  0  0  0  0  0  0  0  0  0  0  0
    5.2256    3.2299   -7.1640 H   0  0  0  0  0  0  0  0  0  0  0  0
  1  2  2  0  0  0  0
  1 14  1  0  0  0  0
  1 16  1  0  0  0  0
  2  7  1  0  0  0  0
  2  8  1  0  0  0  0
  3  8  2  0  0  0  0
  3  9  1  0  0  0  0
  3 14  1  0  0  0  0
  4  7  1  0  0  0  0
  4 10  2  0  0  0  0
  4 13  1  0  0  0  0
  5 13  1  0  0  0  0
  5 17  1  0  0  0  0
  5 18  1  0  0  0  0
  5 19  1  0  0  0  0
  6 15  1  0  0  0  0
  6 20  1  0  0  0  0
  6 21  1  0  0  0  0
  6 22  1  0  0  0  0
  7 23  1  0  0  0  0
  7 24  1  0  0  0  0
  8 25  1  0  0  0  0
  9 15  1  0  0  0  0
  9 26  1  0  0  0  0
 11 15  2  0  0  0  0
 12 15  2  0  0  0  0
M  CHG  1   8   1
M  END
$$$$
