
  -OEChem-12102412493D

 19 19  0     0  0  0  0  0  0999 V2000
    2.6386   -4.1776   -1.0129 C   0  0  0  0  0  0  0  0  0  0  0  0
    4.3776   -2.9409   -0.3385 C   0  0  0  0  0  0  0  0  0  0  0  0
    3.9954   -4.2439   -0.5896 C   0  0  0  0  0  0  0  0  0  0  0  0
    1.4299    1.2140    0.7867 C   0  0  0  0  0  0  0  0  0  0  0  0
    1.7682   -0.2645    0.6086 C   0  0  0  0  0  0  0  0  0  0  0  0
    2.1994   -2.9223   -1.0332 N   0  0  0  0  0  0  0  0  0  0  0  0
    3.2564   -2.1829   -0.6198 N   0  0  0  0  0  0  0  0  0  0  0  0
    4.3999   -0.0376    0.0479 O   0  0  0  0  0  0  0  0  0  0  0  0
    2.7228    0.0381   -1.8690 O   0  0  0  0  0  0  0  0  0  0  0  0
    4.6982   -5.4115   -0.4751 O   0  0  0  0  0  0  0  0  0  0  0  0
    3.1363   -0.4532   -0.5618 S   0  0  0  0  0  0  0  0  0  0  0  0
    1.9864   -4.9952   -1.2936 H   0  0  0  0  0  0  0  0  0  0  0  0
    5.2974   -2.4850   -0.0015 H   0  0  0  0  0  0  0  0  0  0  0  0
    2.2818    1.7726    1.1829 H   0  0  0  0  0  0  0  0  0  0  0  0
    1.1213    1.6632   -0.1600 H   0  0  0  0  0  0  0  0  0  0  0  0
    0.6024    1.3034    1.4964 H   0  0  0  0  0  0  0  0  0  0  0  0
    0.9443   -0.8419    0.1839 H   0  0  0  0  0  0  0  0  0  0  0  0
    2.1072   -0.7368    1.5334 H   0  0  0  0  0  0  0  0  0  0  0  0
    5.6152   -5.2124   -0.2309 H   0  0  0  0  0  0  0  0  0  0  0  0
  1  3  1  0  0  0  0
  1  6  2  0  0  0  0
  1 12  1  0  0  0  0
  2  3  2  0  0  0  0
  2  7  1  0  0  0  0
  2 13  1  0  0  0  0
  3 10  1  0  0  0  0
  4  5  1  0  0  0  0
  4 14  1  0  0  0  0
  4 15  1  0  0  0  0
  4 16  1  0  0  0  0
  5 11  1  0  0  0  0
  5 17  1  0  0  0  0
  5 18  1  0  0  0  0
  6  7  1  0  0  0  0
  7 11  1  0  0  0  0
  8 11  2  0  0  0  0
  9 11  2  0  0  0  0
 10 19  1  0  0  0  0
M  END
$$$$
