
  -OEChem-12102412493D

 14 13  0     0  0  0  0  0  0999 V2000
    0.1625   -1.3707    3.1755 C   0  0  0  0  0  0  0  0  0  0  0  0
    1.1824    0.7952    2.3376 C   0  0  0  0  0  0  0  0  0  0  0  0
    1.4322    1.6283    1.0843 C   0  0  0  0  0  0  0  0  0  0  0  0
    0.4500   -0.4760    1.9967 N   0  3  0  0  0  0  0  0  0  0  0  0
   -0.1357    2.0980    0.3437 Cl  0  0  0  0  0  0  0  0  0  0  0  0
    2.4654    0.7084   -0.0619 Cl  0  0  0  0  0  0  0  0  0  0  0  0
   -0.4570   -0.8223    3.8846 H   0  0  0  0  0  0  0  0  0  0  0  0
   -0.3645   -2.2546    2.8164 H   0  0  0  0  0  0  0  0  0  0  0  0
    1.1088   -1.6544    3.6350 H   0  0  0  0  0  0  0  0  0  0  0  0
    2.1291    0.5168    2.8044 H   0  0  0  0  0  0  0  0  0  0  0  0
    0.5678    1.3513    3.0479 H   0  0  0  0  0  0  0  0  0  0  0  0
    1.9616    2.5433    1.3450 H   0  0  0  0  0  0  0  0  0  0  0  0
    1.0054   -0.9842    1.2936 H   0  0  0  0  0  0  0  0  0  0  0  0
   -0.4286   -0.2200    1.5239 H   0  0  0  0  0  0  0  0  0  0  0  0
  1  4  1  0  0  0  0
  1  7  1  0  0  0  0
  1  8  1  0  0  0  0
  1  9  1  0  0  0  0
  2  3  1  0  0  0  0
  2  4  1  0  0  0  0
  2 10  1  0  0  0  0
  2 11  1  0  0  0  0
  3  5  1  0  0  0  0
  3  6  1  0  0  0  0
  3 12  1  0  0  0  0
  4 13  1  0  0  0  0
  4 14  1  0  0  0  0
M  CHG  1   4   1
M  END
$$$$
