
  -OEChem-12122420533D

 13 12  0     0  0  0  0  0  0999 V2000
   -0.0003    1.2542    2.6077 C   0  0  0  0  0  0  0  0  0  0  0  0
    2.3626    0.6451    2.2468 C   0  0  0  0  0  0  0  0  0  0  0  0
    3.3242    1.5464    1.4661 C   0  0  0  0  0  0  0  0  0  0  0  0
    1.0047    0.6533    1.7318 N   0  0  0  0  0  0  0  0  0  0  0  0
    2.7984    3.2719    1.5221 Cl  0  0  0  0  0  0  0  0  0  0  0  0
    3.4980    0.9832   -0.2371 Cl  0  0  0  0  0  0  0  0  0  0  0  0
    0.2260    2.3140    2.7510 H   0  0  0  0  0  0  0  0  0  0  0  0
   -0.0723    0.7784    3.6013 H   0  0  0  0  0  0  0  0  0  0  0  0
   -0.9791    1.1885    2.1232 H   0  0  0  0  0  0  0  0  0  0  0  0
    2.7936   -0.3630    2.2135 H   0  0  0  0  0  0  0  0  0  0  0  0
    2.4005    0.9740    3.2949 H   0  0  0  0  0  0  0  0  0  0  0  0
    4.3236    1.5209    1.8995 H   0  0  0  0  0  0  0  0  0  0  0  0
    0.7240   -0.2755    1.4415 H   0  0  0  0  0  0  0  0  0  0  0  0
  1  4  1  0  0  0  0
  1  7  1  0  0  0  0
  1  8  1  0  0  0  0
  1  9  1  0  0  0  0
  2  3  1  0  0  0  0
  2  4  1  0  0  0  0
  2 10  1  0  0  0  0
  2 11  1  0  0  0  0
  3  5  1  0  0  0  0
  3  6  1  0  0  0  0
  3 12  1  0  0  0  0
  4 13  1  0  0  0  0
M  END
$$$$
