
  -OEChem-12122420533D

  9  8  0     0  0  0  0  0  0999 V2000
    0.2400    0.4520   -1.2280 C   0  0  0  0  0  0  0  0  0  0  0  0
    0.0578   -0.4981    1.0479 C   0  0  0  0  0  0  0  0  0  0  0  0
   -0.2059    0.5869    0.1187 N   0  0  0  0  0  0  0  0  0  0  0  0
    1.1909   -0.3189   -1.4498 O   0  0  0  0  0  0  0  0  0  0  0  0
   -0.6457    1.4409   -2.3724 S   0  5  0  0  0  0  0  0  0  0  0  0
   -0.5436   -1.4055    0.8553 H   0  0  0  0  0  0  0  0  0  0  0  0
   -0.1387   -0.1650    2.0761 H   0  0  0  0  0  0  0  0  0  0  0  0
    1.1092   -0.7802    0.9602 H   0  0  0  0  0  0  0  0  0  0  0  0
   -1.1348    0.9886    0.1546 H   0  0  0  0  0  0  0  0  0  0  0  0
  1  3  1  0  0  0  0
  1  4  2  0  0  0  0
  1  5  1  0  0  0  0
  2  3  1  0  0  0  0
  2  6  1  0  0  0  0
  2  7  1  0  0  0  0
  2  8  1  0  0  0  0
  3  9  1  0  0  0  0
M  CHG  1   5  -1
M  END
$$$$
