
  -OEChem-12102412493D

 26 26  0     0  0  0  0  0  0999 V2000
    5.7831    0.1761   -3.3571 C   0  0  0  0  0  0  0  0  0  0  0  0
    4.4807    0.3786   -3.6664 C   0  0  0  0  0  0  0  0  0  0  0  0
    5.4854    1.7196   -5.2589 C   0  0  0  0  0  0  0  0  0  0  0  0
    2.1584   -0.6528   -3.9026 C   0  0  0  0  0  0  0  0  0  0  0  0
    0.6873    0.0255   -5.6602 C   0  0  0  0  0  0  0  0  0  0  0  0
    4.5563    2.2721   -8.8758 C   0  0  0  0  0  0  0  0  0  0  0  0
    3.2669   -0.1658   -2.9688 C   0  0  0  0  0  0  0  0  0  0  0  0
    4.3434    1.2612   -4.7434 N   0  3  0  0  0  0  0  0  0  0  0  0
    5.5968    2.5546   -6.3291 N   0  0  0  0  0  0  0  0  0  0  0  0
    1.6619   -1.7505   -3.8629 O   0  0  0  0  0  0  0  0  0  0  0  0
    3.0678    2.6570   -6.6995 O   0  0  0  0  0  0  0  0  0  0  0  0
    4.5678    4.5693   -7.5199 O   0  0  0  0  0  0  0  0  0  0  0  0
    1.7887    0.3365   -4.7558 O   0  0  0  0  0  0  0  0  0  0  0  0
    6.8500    1.0737   -4.4159 S   0  0  0  0  0  0  0  0  0  0  0  0
    4.2787    3.1628   -7.3415 S   0  0  0  0  0  0  0  0  0  0  0  0
    6.1958   -0.4310   -2.5626 H   0  0  0  0  0  0  0  0  0  0  0  0
    0.5580    0.9203   -6.2660 H   0  0  0  0  0  0  0  0  0  0  0  0
   -0.2099   -0.1888   -5.0787 H   0  0  0  0  0  0  0  0  0  0  0  0
    0.9459   -0.8379   -6.2749 H   0  0  0  0  0  0  0  0  0  0  0  0
    3.7690    2.6036   -9.5571 H   0  0  0  0  0  0  0  0  0  0  0  0
    5.5367    2.5479   -9.2649 H   0  0  0  0  0  0  0  0  0  0  0  0
    4.4762    1.2033   -8.6784 H   0  0  0  0  0  0  0  0  0  0  0  0
    3.5577   -0.9982   -2.3294 H   0  0  0  0  0  0  0  0  0  0  0  0
    2.8381    0.6181   -2.3324 H   0  0  0  0  0  0  0  0  0  0  0  0
    3.4208    1.5039   -5.1271 H   0  0  0  0  0  0  0  0  0  0  0  0
    6.4708    3.0660   -6.4423 H   0  0  0  0  0  0  0  0  0  0  0  0
  1  2  2  0  0  0  0
  1 14  1  0  0  0  0
  1 16  1  0  0  0  0
  2  7  1  0  0  0  0
  2  8  1  0  0  0  0
  3  8  2  0  0  0  0
  3  9  1  0  0  0  0
  3 14  1  0  0  0  0
  4  7  1  0  0  0  0
  4 10  2  0  0  0  0
  4 13  1  0  0  0  0
  5 13  1  0  0  0  0
  5 17  1  0  0  0  0
  5 18  1  0  0  0  0
  5 19  1  0  0  0  0
  6 15  1  0  0  0  0
  6 20  1  0  0  0  0
  6 21  1  0  0  0  0
  6 22  1  0  0  0  0
  7 23  1  0  0  0  0
  7 24  1  0  0  0  0
  8 25  1  0  0  0  0
  9 15  1  0  0  0  0
  9 26  1  0  0  0  0
 11 15  2  0  0  0  0
 12 15  2  0  0  0  0
M  CHG  1   8   1
M  END
$$$$
