
  -OEChem-12102412493D

 26 26  0     0  0  0  0  0  0999 V2000
    4.8750   -0.7777   -4.1420 C   0  0  0  0  0  0  0  0  0  0  0  0
    3.9888    0.2409   -4.0545 C   0  0  0  0  0  0  0  0  0  0  0  0
    5.4156    1.0974   -5.6531 C   0  0  0  0  0  0  0  0  0  0  0  0
    2.3822    1.7247   -2.7644 C   0  0  0  0  0  0  0  0  0  0  0  0
    1.2165    3.0092   -1.1551 C   0  0  0  0  0  0  0  0  0  0  0  0
    4.6142    3.5093   -8.4425 C   0  0  0  0  0  0  0  0  0  0  0  0
    2.7531    0.3110   -3.2018 C   0  0  0  0  0  0  0  0  0  0  0  0
    4.3147    1.2898   -4.9235 N   0  3  0  0  0  0  0  0  0  0  0  0
    5.9323    1.9593   -6.5696 N   0  0  0  0  0  0  0  0  0  0  0  0
    2.6485    2.7242   -3.4175 O   0  0  0  0  0  0  0  0  0  0  0  0
    4.4202    3.8938   -5.8119 O   0  0  0  0  0  0  0  0  0  0  0  0
    6.6621    4.3716   -6.9678 O   0  0  0  0  0  0  0  0  0  0  0  0
    1.6987    1.7156   -1.6293 O   0  0  0  0  0  0  0  0  0  0  0  0
    6.1252   -0.4466   -5.3213 S   0  0  0  0  0  0  0  0  0  0  0  0
    5.4177    3.6406   -6.8427 S   0  0  0  0  0  0  0  0  0  0  0  0
    4.8781   -1.7130   -3.5987 H   0  0  0  0  0  0  0  0  0  0  0  0
    0.6812    2.7884   -0.2343 H   0  0  0  0  0  0  0  0  0  0  0  0
    0.5536    3.4496   -1.9010 H   0  0  0  0  0  0  0  0  0  0  0  0
    2.0639    3.6703   -0.9700 H   0  0  0  0  0  0  0  0  0  0  0  0
    4.2731    4.5183   -8.6860 H   0  0  0  0  0  0  0  0  0  0  0  0
    5.3474    3.1664   -9.1726 H   0  0  0  0  0  0  0  0  0  0  0  0
    3.7695    2.8263   -8.3533 H   0  0  0  0  0  0  0  0  0  0  0  0
    1.8946   -0.0686   -3.7713 H   0  0  0  0  0  0  0  0  0  0  0  0
    2.8634   -0.3365   -2.3314 H   0  0  0  0  0  0  0  0  0  0  0  0
    3.8243    2.1977   -4.8323 H   0  0  0  0  0  0  0  0  0  0  0  0
    6.8881    1.7889   -6.8793 H   0  0  0  0  0  0  0  0  0  0  0  0
  1  2  2  0  0  0  0
  1 14  1  0  0  0  0
  1 16  1  0  0  0  0
  2  7  1  0  0  0  0
  2  8  1  0  0  0  0
  3  8  2  0  0  0  0
  3  9  1  0  0  0  0
  3 14  1  0  0  0  0
  4  7  1  0  0  0  0
  4 10  2  0  0  0  0
  4 13  1  0  0  0  0
  5 13  1  0  0  0  0
  5 17  1  0  0  0  0
  5 18  1  0  0  0  0
  5 19  1  0  0  0  0
  6 15  1  0  0  0  0
  6 20  1  0  0  0  0
  6 21  1  0  0  0  0
  6 22  1  0  0  0  0
  7 23  1  0  0  0  0
  7 24  1  0  0  0  0
  8 25  1  0  0  0  0
  9 15  1  0  0  0  0
  9 26  1  0  0  0  0
 11 15  2  0  0  0  0
 12 15  2  0  0  0  0
M  CHG  1   8   1
M  END
$$$$
