
  -OEChem-12102412483D

 50 52  0     1  0  0  0  0  0999 V2000
    3.1796   -4.1310    1.8799 C   0  0  0  0  0  0  0  0  0  0  0  0
    4.4726   -4.0275    2.4090 C   0  0  0  0  0  0  0  0  0  0  0  0
    2.5358   -3.0000    1.3767 C   0  0  0  0  0  0  0  0  0  0  0  0
    5.1072   -2.7854    2.4348 C   0  0  0  0  0  0  0  0  0  0  0  0
    6.2081    1.4315    1.4036 C   0  0  0  0  0  0  0  0  0  0  0  0
    3.1650   -1.7473    1.3797 C   0  0  0  0  0  0  0  0  0  0  0  0
    4.4539   -1.6598    1.9241 C   0  0  0  0  0  0  0  0  0  0  0  0
    5.4722    1.6225    2.6042 C   0  0  0  0  0  0  0  0  0  0  0  0
    5.9543    0.1250    1.0136 C   0  0  0  0  0  0  0  0  0  0  0  0
    1.4624    1.5381    3.0198 C   0  0  0  0  0  0  0  0  0  0  0  0
    1.1747    0.0427    2.8220 C   0  0  0  0  0  0  0  0  0  0  0  0
    0.2005    0.4805    0.6567 C   0  0  0  0  0  0  0  0  0  0  0  0
    0.4157    2.0110    0.7605 C   0  0  1  0  0  0  0  0  0  0  0  0
    0.4691    2.4260    2.2503 C   0  0  2  0  0  0  0  0  0  0  0  0
    5.3727    2.8524    3.4566 C   0  0  0  0  0  0  0  0  0  0  0  0
    6.4067   -0.6620   -0.1754 C   0  0  0  0  0  0  0  0  0  0  0  0
    1.6140    2.5197   -0.0582 C   0  0  0  0  0  0  0  0  0  0  0  0
    0.8006    3.9096    2.4388 C   0  0  0  0  0  0  0  0  0  0  0  0
    2.4514   -0.5387    0.8034 C   0  0  0  0  0  0  0  0  0  0  0  0
    4.8060    0.5135    2.9371 N   0  0  0  0  0  0  0  0  0  0  0  0
    5.1208   -0.3951    1.9647 N   0  0  0  0  0  0  0  0  0  0  0  0
    1.1324   -0.3613    1.4115 N   0  0  1  0  0  0  0  0  0  0  0  0
   -0.8773    2.1880    2.7335 O   0  0  0  0  0  0  0  0  0  0  0  0
    2.6752   -5.0939    1.8642 H   0  0  0  0  0  0  0  0  0  0  0  0
    4.9758   -4.9044    2.8073 H   0  0  0  0  0  0  0  0  0  0  0  0
    1.5233   -3.0657    0.9879 H   0  0  0  0  0  0  0  0  0  0  0  0
    6.1005   -2.6704    2.8596 H   0  0  0  0  0  0  0  0  0  0  0  0
    6.8398    2.1461    0.8917 H   0  0  0  0  0  0  0  0  0  0  0  0
    1.4149    1.7821    4.0908 H   0  0  0  0  0  0  0  0  0  0  0  0
    2.4865    1.7598    2.7078 H   0  0  0  0  0  0  0  0  0  0  0  0
    1.9330   -0.5508    3.3389 H   0  0  0  0  0  0  0  0  0  0  0  0
    0.2026   -0.2028    3.2645 H   0  0  0  0  0  0  0  0  0  0  0  0
   -0.8041    0.2609    1.0327 H   0  0  0  0  0  0  0  0  0  0  0  0
    0.2280    0.1757   -0.3959 H   0  0  0  0  0  0  0  0  0  0  0  0
   -0.4889    2.4784    0.3494 H   0  0  0  0  0  0  0  0  0  0  0  0
    5.0106    3.7082    2.8759 H   0  0  0  0  0  0  0  0  0  0  0  0
    4.6803    2.6769    4.2832 H   0  0  0  0  0  0  0  0  0  0  0  0
    6.3469    3.1286    3.8751 H   0  0  0  0  0  0  0  0  0  0  0  0
    6.9973   -1.5360    0.1185 H   0  0  0  0  0  0  0  0  0  0  0  0
    5.5547   -1.0272   -0.7592 H   0  0  0  0  0  0  0  0  0  0  0  0
    7.0229   -0.0349   -0.8234 H   0  0  0  0  0  0  0  0  0  0  0  0
    2.5762    2.2994    0.4115 H   0  0  0  0  0  0  0  0  0  0  0  0
    1.5628    3.6026   -0.2062 H   0  0  0  0  0  0  0  0  0  0  0  0
    1.6204    2.0554   -1.0505 H   0  0  0  0  0  0  0  0  0  0  0  0
    0.1041    4.5340    1.8698 H   0  0  0  0  0  0  0  0  0  0  0  0
    1.8216    4.1439    2.1244 H   0  0  0  0  0  0  0  0  0  0  0  0
    0.7131    4.1809    3.4982 H   0  0  0  0  0  0  0  0  0  0  0  0
    3.1054    0.3366    0.8878 H   0  0  0  0  0  0  0  0  0  0  0  0
    2.2931   -0.7064   -0.2690 H   0  0  0  0  0  0  0  0  0  0  0  0
   -0.8757    2.3482    3.6910 H   0  0  0  0  0  0  0  0  0  0  0  0
  1  2  1  0  0  0  0
  1  3  2  0  0  0  0
  1 24  1  0  0  0  0
  2  4  2  0  0  0  0
  2 25  1  0  0  0  0
  3  6  1  0  0  0  0
  3 26  1  0  0  0  0
  4  7  1  0  0  0  0
  4 27  1  0  0  0  0
  5  8  1  0  0  0  0
  5  9  2  0  0  0  0
  5 28  1  0  0  0  0
  6  7  2  0  0  0  0
  6 19  1  0  0  0  0
  7 21  1  0  0  0  0
  8 15  1  0  0  0  0
  8 20  2  0  0  0  0
  9 16  1  0  0  0  0
  9 21  1  0  0  0  0
 10 11  1  0  0  0  0
 10 14  1  0  0  0  0
 10 29  1  0  0  0  0
 10 30  1  0  0  0  0
 11 22  1  0  0  0  0
 11 31  1  0  0  0  0
 11 32  1  0  0  0  0
 12 13  1  0  0  0  0
 12 22  1  0  0  0  0
 12 33  1  0  0  0  0
 12 34  1  0  0  0  0
 13 14  1  0  0  0  0
 13 17  1  0  0  0  0
 13 35  1  0  0  0  0
 14 18  1  0  0  0  0
 14 23  1  0  0  0  0
 15 36  1  0  0  0  0
 15 37  1  0  0  0  0
 15 38  1  0  0  0  0
 16 39  1  0  0  0  0
 16 40  1  0  0  0  0
 16 41  1  0  0  0  0
 17 42  1  0  0  0  0
 17 43  1  0  0  0  0
 17 44  1  0  0  0  0
 18 45  1  0  0  0  0
 18 46  1  0  0  0  0
 18 47  1  0  0  0  0
 19 22  1  0  0  0  0
 19 48  1  0  0  0  0
 19 49  1  0  0  0  0
 20 21  1  0  0  0  0
 23 50  1  0  0  0  0
M  END
$$$$
