22   
torsion grid (-165,)
C        1.9414619924   -0.8790455111   -0.1264635550
C        0.8239984418   -0.2989516914    0.4805503920
C        2.9240071022   -1.5011708032    0.6418621558
C        1.6882688486   -0.9744926748    2.6551878250
C        0.7119725643   -0.3521387674    1.8718941549
C        2.8082843412   -1.5548323495    2.0428674222
C        4.6661946306   -2.9187017326    5.5444342784
C        3.6055676733   -2.2427250023    4.6741960165
C       -0.5116679905    0.2339772147    2.5262823711
F       -1.6011429156   -0.5662194250    2.3654025767
F       -0.3533235143    0.4107442667    3.8614853455
F       -0.8412196858    1.4403560407    1.9989195779
S        4.1204093233   -2.3662350247    2.9211677317
H        2.0490246752   -0.8453350815   -1.2070515869
H        0.0601151566    0.1903488175   -0.1153650227
H        3.7883705978   -1.9467811304    0.1555419883
H        1.5652326295   -0.9918313748    3.7304132633
H        4.7767242689   -3.9764038019    5.2875166066
H        5.6406706178   -2.4341089901    5.4323488850
H        4.3743300142   -2.8539706728    6.5973711406
H        3.5025056352   -1.1878659609    4.9449602678
H        2.6361660434   -2.7340960798    4.7988574610
22   
torsion grid (-150,)
C        1.9572640397   -0.8595877762   -0.1217019402
C        0.8354135043   -0.2819178285    0.4825635990
C        2.9335064318   -1.4878042574    0.6476186812
C        1.6872416634   -0.9724647445    2.6572566606
C        0.7150627325   -0.3433607825    1.8713746166
C        2.8092357170   -1.5501009309    2.0487313475
C        4.6454454937   -2.9451128141    5.5495053202
C        3.5915881015   -2.2589977327    4.6789356665
C       -0.5101868541    0.2205153304    2.5417584673
F       -1.4869715203   -0.7185515691    2.6784026048
F       -0.2456588502    0.6828968424    3.7907236457
F       -1.0538778184    1.2454258035    1.8414356457
S        4.1161500789   -2.3686671745    2.9279263306
H        2.0715171868   -0.8182024690   -1.2013371312
H        0.0763639146    0.2125378459   -0.1142681665
H        3.8004491121   -1.9312828738    0.1639250990
H        1.5593428848   -0.9937912407    3.7323819297
H        4.7546537118   -4.0008827821    5.2842130271
H        5.6218267069   -2.4622020428    5.4471381709
H        4.3477665218   -2.8885606279    6.6012818744
H        3.4895137174   -1.2062078567    4.9580342060
H        2.6203042375   -2.7490864958    4.7936457028
22   
torsion grid (-135,)
C        1.9569142268   -0.8170974129   -0.1302597602
C        0.8284352100   -0.2499925699    0.4743406205
C        2.9295458299   -1.4516595012    0.6367788371
C        1.6706470774   -0.9670971284    2.6445687806
C        0.6996857159   -0.3315994833    1.8600158664
C        2.7974782377   -1.5335141608    2.0371791953
C        4.6230318552   -2.9558676353    5.5316669817
C        3.5703514618   -2.2662142468    4.6625233270
C       -0.5133035460    0.2328308480    2.5516730146
F       -1.3547658076   -0.7501300342    2.9762576281
F       -0.1792436632    0.9502760154    3.6571843889
F       -1.2367058481    1.0486642547    1.7498247172
S        4.1009151031   -2.3614636760    2.9125442216
H        2.0776163136   -0.7617903840   -1.2085795432
H        0.0706403098    0.2477703498   -0.1205861227
H        3.8007429032   -1.8864563021    0.1528726281
H        1.5349845147   -1.0041995447    3.7188836264
H        4.7359513412   -4.0094014391    5.2591100869
H        5.5984545223   -2.4696336101    5.4362108558
H        4.3214973566   -2.9078177298    6.5827661565
H        3.4645361762   -1.2156812436    4.9487139021
H        2.5999933289   -2.7597127034    4.7703827797
22   
torsion grid (-120,)
C        1.9647044476   -0.7893473940   -0.1300715911
C        0.8270877564   -0.2383453681    0.4732905240
C        2.9361329361   -1.4265457462    0.6356787062
C        1.6573579782   -0.9805274999    2.6401702772
C        0.6877425600   -0.3416246975    1.8559944230
C        2.7927925984   -1.5296398996    2.0339588793
C        4.6075656047   -2.9733314408    5.5248129455
C        3.5549572062   -2.2834817192    4.6557698015
C       -0.5143660571    0.2340680537    2.5570954683
F       -1.2024112393   -0.7184610278    3.2440181737
F       -0.1611505410    1.1787598061    3.4709620121
F       -1.3878324722    0.8159038651    1.7036300579
S        4.0932858712   -2.3640105519    2.9074358817
H        2.0925995520   -0.7198135241   -1.2067363116
H        0.0685651979    0.2588043395   -0.1210000540
H        3.8139410806   -1.8490708119    0.1528243282
H        1.5100297464   -1.0395115113    3.7122063216
H        4.7273683928   -4.0243782930    5.2456421554
H        5.5807301858   -2.4812009135    5.4369576079
H        4.3011095825   -2.9341332223    6.5748552374
H        3.4423238960   -1.2353631656    4.9482027367
H        2.5868380161   -2.7828483279    4.7564254865
22   
torsion grid (-105,)
C        1.9790003547   -0.7672284355   -0.1374529317
C        0.8324864340   -0.2321562309    0.4622893737
C        2.9491964901   -1.4056172004    0.6295571799
C        1.6482426054   -0.9936539402    2.6274941733
C        0.6803223002   -0.3540425685    1.8427089142
C        2.7936490166   -1.5268406654    2.0246415852
C        4.5924463197   -2.9916387425    5.5153691898
C        3.5413335649   -2.3006857064    4.6453579519
C       -0.5180737098    0.2386116419    2.5361700721
F       -1.0480694942   -0.6147815621    3.4523189374
F       -0.1970241058    1.3744047180    3.2154876078
F       -1.5090772193    0.5646832422    1.6739230240
S        4.0908150866   -2.3647323132    2.8997917361
H        2.1149899892   -0.6854388342   -1.2122607742
H        0.0737087782    0.2630861759   -0.1335255650
H        3.8339674597   -1.8165669997    0.1494282526
H        1.4892618270   -1.0718220400    3.6963714484
H        4.7198166729   -4.0397373957    5.2285460805
H        5.5633747417   -2.4934680035    5.4374240765
H        4.2793624532   -2.9626227081    6.5637865819
H        3.4212344660   -1.2554566647    4.9450904155
H        2.5753940939   -2.8060283317    4.7364802482
22   
torsion grid (-90,)
C        1.9934823389   -0.7412660321   -0.1224353173
C        0.8434930200   -0.2177122779    0.4781244258
C        2.9645640987   -1.3823807376    0.6428912358
C        1.6543874390   -0.9937963729    2.6397494899
C        0.6863344017   -0.3533522953    1.8580589540
C        2.8048290528   -1.5170841486    2.0352265887
C        4.5887233390   -3.0214328750    5.5172631911
C        3.5410111177   -2.3207130088    4.6509553135
C       -0.5152865834    0.2506741017    2.5362711269
F       -0.8821624539   -0.4418115429    3.6448871648
F       -0.2758574645    1.5284724178    2.9420695836
F       -1.5955022831    0.3004700733    1.7192627435
S        4.1019211386   -2.3575922578    2.9081979208
H        2.1324802603   -0.6498708248   -1.1960844215
H        0.0829791813    0.2771498783   -0.1165309191
H        3.8523397650   -1.7856325796    0.1618149984
H        1.4919163930   -1.0830821130    3.7066705746
H        4.7208317907   -4.0648469672    5.2158983440
H        5.5587172165   -2.5195320164    5.4526195806
H        4.2691676451   -3.0085670029    6.5640495867
H        3.4158866142   -1.2804775142    4.9656071650
H        2.5760077019   -2.8300853990    4.7283742524
22   
torsion grid (-75,)
C        2.0014924937   -0.7164432424   -0.1193532347
C        0.8522494358   -0.1976404339    0.4837799905
C        2.9706196292   -1.3672504468    0.6422144473
C        1.6563878705   -0.9942696762    2.6405383326
C        0.6920402583   -0.3460367592    1.8634780860
C        2.8076572665   -1.5140688989    2.0318174631
C        4.5816255406   -3.0499939612    5.5054108916
C        3.5370695110   -2.3399476169    4.6429036820
C       -0.5244475919    0.2492410373    2.5228971591
F       -0.7265818060   -0.2328119234    3.7740566717
F       -0.4252888343    1.6019934688    2.6363904599
F       -1.6560484187    0.0067372648    1.8131869349
S        4.1011668658   -2.3642915069    2.9008899022
H        2.1432190713   -0.6144699588   -1.1916850137
H        0.0937660804    0.3049946410   -0.1079074617
H        3.8587590002   -1.7670908619    0.1589524878
H        1.4931987123   -1.0906953306    3.7062138792
H        4.7118981973   -4.0912456307    5.1958730527
H        5.5528834679   -2.5498338910    5.4465686174
H        4.2601614667   -3.0448442214    6.5516823789
H        3.4137274105   -1.3019921741    4.9656456647
H        2.5707956664   -2.8477033247    4.7147529942
22   
torsion grid (-60,)
C        1.6586062726   -1.3206424331   -0.1273536855
C        0.5902185212   -0.6634469063    0.4879788961
C        2.7155441190   -1.8217963877    0.6315751252
C        1.6528640072   -1.0147580854    2.6510751978
C        0.6006915853   -0.5179508455    1.8778453315
C        2.7239444757   -1.6741487242    2.0300432782
C        4.9085684226   -2.5012639639    5.5109946823
C        3.7646662342   -1.9625577813    4.6505135257
C       -0.5535417958    0.1929702889    2.5348262516
F       -0.4286174730    0.2587473518    3.8829300731
F       -0.6804757560    1.4701410220    2.0861659362
F       -1.7380147530   -0.4219715039    2.2761263365
S        4.1183304309   -2.3504399696    2.8960770429
H        1.6693188599   -1.4441692794   -1.2067076602
H       -0.2339413653   -0.2725643214   -0.1007577446
H        3.5401979510   -2.3310411404    0.1388177703
H        1.6229212449   -0.8813849554    3.7245584362
H        5.0076814936   -3.5858871778    5.4073677772
H        5.8628397323   -2.0412271836    5.2376715991
H        4.7135290666   -2.2775324666    6.5645421840
H        3.6739344326   -0.8786756822    4.7673738956
H        2.8169119102   -2.4276372813    4.9371200482
22   
torsion grid (-45,)
C        1.6767501801   -1.2926805620   -0.1275185189
C        0.6104516809   -0.6269414642    0.4833871573
C        2.7238834515   -1.8065218955    0.6356624278
C        1.6585924949   -0.9964852110    2.6517251319
C        0.6163152317   -0.4852766699    1.8731128242
C        2.7270985906   -1.6630136543    2.0350477124
C        4.8861243211   -2.5247360549    5.5236363082
C        3.7502078423   -1.9744295150    4.6599119510
C       -0.5511287648    0.1959218646    2.5379421623
F       -0.2879098565    0.5431401312    3.8222358353
F       -0.9162592009    1.3288937532    1.8853074516
F       -1.6521371172   -0.6034317122    2.5670477597
S        4.1133251323   -2.3509470097    2.9049657032
H        1.6934519497   -1.4112910309   -1.2073446744
H       -0.2035971028   -0.2211820564   -0.1089326067
H        3.5471786446   -2.3205981730    0.1456755329
H        1.6259122482   -0.8621711681    3.7252048167
H        4.9813341758   -3.6089452304    5.4123277337
H        5.8440944147   -2.0667024626    5.2600357279
H        4.6852173656   -2.3082075994    6.5775832539
H        3.6637739284   -0.8910542520    4.7843846274
H        2.7984205004   -2.4372241836    4.9367480806
22   
torsion grid (-30,)
C        1.6936823692   -1.2722054924   -0.1293033000
C        0.6235837827   -0.6077907322    0.4794963701
C        2.7339993509   -1.7930717119    0.6363371075
C        1.6573186781   -0.9933543541    2.6512351506
C        0.6204336370   -0.4733771443    1.8685003740
C        2.7272892936   -1.6579223057    2.0377375623
C        4.8624668955   -2.5462632036    5.5335440316
C        3.7334806203   -1.9878124229    4.6659629653
C       -0.5475839886    0.1876372843    2.5522452213
F       -0.1861608988    0.8029387371    3.7075280862
F       -1.1402719626    1.1213774913    1.7690162410
F       -1.5142342004   -0.7129640307    2.8819883504
S        4.1066425833   -2.3546113860    2.9111353292
H        1.7171313623   -1.3831713309   -1.2098215047
H       -0.1851677583   -0.1965948858   -0.1152756494
H        3.5598515977   -2.3055431038    0.1489323032
H        1.6194129608   -0.8638833149    3.7257132170
H        4.9557313526   -3.6299989508    5.4161011426
H        5.8232329601   -2.0889797035    5.2789788003
H        4.6552897298   -2.3358218499    6.5875051074
H        3.6490144354   -0.9049577089    4.7962430981
H        2.7787484380   -2.4498278406    4.9338758876
22   
torsion grid (-15,)
C        1.7137496761   -1.2528324223   -0.1305022821
C        0.6335912778   -0.5993068295    0.4751098816
C        2.7499044783   -1.7775281528    0.6364185083
C        1.6533508554   -1.0061376801    2.6499664576
C        0.6187756103   -0.4824393450    1.8641697856
C        2.7311603010   -1.6589051740    2.0402423887
C        4.8477912737   -2.5666425851    5.5420581220
C        3.7212904969   -2.0076140918    4.6716331079
C       -0.5386970949    0.1795920345    2.5643480187
F       -0.1220828040    1.0335326824    3.5373994924
F       -1.3209274667    0.8894864884    1.7180913268
F       -1.3452244885   -0.7303335747    3.1765970393
S        4.1055248768   -2.3615844979    2.9166148206
H        1.7466572818   -1.3518978609   -1.2119103203
H       -0.1726384313   -0.1869502070   -0.1215501562
H        3.5819258906   -2.2809494539    0.1500471082
H        1.6049132631   -0.8897098897    3.7260619792
H        4.9465284497   -3.6491886281    5.4182145690
H        5.8079311432   -2.1034855665    5.2959294152
H        4.6336484300   -2.3639954710    6.5961535030
H        3.6314051165   -0.9259266020    4.8079572867
H        2.7671223441   -2.4754465406    4.9313817203
22   
torsion grid (0,)
C        1.7190652993   -1.2241787892   -0.1353009685
C        0.6309992399   -0.5866304124    0.4742026074
C        2.7563702044   -1.7464742171    0.6310285454
C        1.6455238780   -1.0061624054    2.6488394165
C        0.6080689200   -0.4857947084    1.8638855098
C        2.7308844812   -1.6426520612    2.0363495142
C        4.8297101111   -2.5892789236    5.5380472605
C        3.7074907025   -2.0211754189    4.6679890196
C       -0.5371241961    0.1892888865    2.5715898975
F       -0.1170096279    1.2489479971    3.3148493588
F       -1.4782553852    0.6529383890    1.7174603097
F       -1.1641853923   -0.6547176923    3.4360084994
S        4.1074528899   -2.3436321838    2.9104352711
H        1.7560055998   -1.3134498498   -1.2174556645
H       -0.1785609721   -0.1788483987   -0.1207920845
H        3.5941397854   -2.2389871820    0.1433699422
H        1.5893591767   -0.9059646985    3.7264549117
H        4.9344895328   -3.6691572170    5.3971791993
H        5.7896016873   -2.1177296791    5.3073142160
H        4.6063032348   -2.4049112893    6.5935746861
H        3.6111045381   -0.9423879244    4.8218921636
H        2.7535866820   -2.4979936658    4.9118389821
22   
torsion grid (15,)
C        1.7623542790   -1.2104038345   -0.1355887147
C        0.6637906926   -0.5880757234    0.4697614102
C        2.7931593718   -1.7371975824    0.6370908708
C        1.6514770115   -1.0348022133    2.6502741663
C        0.6206795996   -0.5091260460    1.8609385300
C        2.7492756964   -1.6558533847    2.0430214999
C        4.8282752144   -2.6091130637    5.5554240230
C        3.7069464596   -2.0463351824    4.6807348052
C       -0.5225748737    0.1839336686    2.5545321246
F       -0.1537963818    1.4019362002    3.0397304303
F       -1.5785623436    0.3929963913    1.7340483946
F       -0.9767878835   -0.5276240559    3.6200820071
S        4.1160512987   -2.3665669669    2.9248543423
H        1.8129776315   -1.2847880758   -1.2183320602
H       -0.1421239595   -0.1790959503   -0.1295576561
H        3.6397546992   -2.2179020393    0.1529635163
H        1.5775967133   -0.9573020970    3.7284107803
H        4.9391889801   -3.6883990648    5.4145442331
H        5.7867115842   -2.1325867657    5.3290036635
H        4.5992998738   -2.4265926565    6.6100804411
H        3.6046192244   -0.9679776503    4.8338450498
H        2.7545012221   -2.5277690461    4.9211235466
22   
torsion grid (30,)
C        1.7661770546   -1.1857593950   -0.1366700164
C        0.6628866721   -0.5767729035    0.4707674135
C        2.7990072144   -1.7139744717    0.6341250500
C        1.6468444679   -1.0375993209    2.6513498941
C        0.6161940784   -0.5121495520    1.8639961029
C        2.7501973832   -1.6468490226    2.0395662758
C        4.8159196808   -2.6373119861    5.5498789828
C        3.6971233599   -2.0662410038    4.6773171933
C       -0.5332809008    0.1877619653    2.5403259110
F       -0.2752823510    1.5110320439    2.7325976674
F       -1.6760736664    0.1172904775    1.8152387353
F       -0.8027414691   -0.3326307923    3.7650940739
S        4.1177478614   -2.3588548960    2.9192895479
H        1.8199983273   -1.2502435573   -1.2198753670
H       -0.1456787554   -0.1695562311   -0.1270146025
H        3.6493055981   -2.1855596096    0.1475184243
H        1.5689093242   -0.9721648537    3.7294488273
H        4.9321444425   -3.7139136640    5.3936189353
H        5.7736208758   -2.1535655307    5.3359680909
H        4.5803226679   -2.4713547592    6.6058132901
H        3.5893406081   -0.9907673892    4.8460995724
H        2.7453650007   -2.5551161452    4.9050049465
22   
torsion grid (45,)
C        1.7926100339   -1.1509038879   -0.1132593867
C        0.6918058981   -0.5429445830    0.4967780282
C        2.8212040858   -1.6922516029    0.6560224794
C        1.6658513424   -1.0271154786    2.6765282455
C        0.6410063977   -0.4907267052    1.8918249422
C        2.7681673356   -1.6369593446    2.0607041498
C        4.8159158980   -2.6688082932    5.5699655283
C        3.7036353388   -2.0835694914    4.6984736908
C       -0.5233766362    0.2010845901    2.5511021744
F       -0.4307843977    1.5549290173    2.4461647814
F       -1.7070893002   -0.1471004409    1.9851748880
F       -0.6152102896   -0.0814020037    3.8742940521
S        4.1292711718   -2.3627131997    2.9393879415
H        1.8497082083   -1.2048549332   -1.1968676369
H       -0.1127730578   -0.1250266536   -0.0999680420
H        3.6706396915   -2.1632989122    0.1673696265
H        1.5869604495   -0.9681300749    3.7544014528
H        4.9261165270   -3.7447302233    5.4049325769
H        5.7772903045   -2.1891394282    5.3634787393
H        4.5776400821   -2.5103634851    6.6264565177
H        3.6011602953   -1.0091102632    4.8766754529
H        2.7483700427   -2.5691411574    4.9183596019
22   
torsion grid (60,)
C        1.8060014885   -1.1215988610   -0.1164419887
C        0.7114627560   -0.5065977278    0.4965563688
C        2.8291830879   -1.6774410627    0.6506108945
C        1.6786178962   -1.0114356899    2.6738274153
C        0.6610551073   -0.4586747672    1.8923328936
C        2.7761328930   -1.6280646484    2.0550068583
C        4.8068545728   -2.7021061401    5.5613970954
C        3.7007141835   -2.1029084224    4.6915987420
C       -0.5227877580    0.2044921604    2.5465843327
F       -0.6466713331    1.5039171501    2.1670987679
F       -1.6911664813   -0.4043656547    2.2107611138
F       -0.4468183738    0.1935716020    3.8999476574
S        4.1320000462   -2.3663353441    2.9314388812
H        1.8638140011   -1.1689929915   -1.2003194430
H       -0.0862502428   -0.0730002208   -0.0986589652
H        3.6749379836   -2.1528182790    0.1597750928
H        1.6019512651   -0.9536180404    3.7517182939
H        4.9133246784   -3.7766645072    5.3854315313
H        5.7710475974   -2.2242725118    5.3639757411
H        4.5648344611   -2.5537963129    6.6185096897
H        3.6026696374   -1.0298982384    4.8805898660
H        2.7422308820   -2.5860870065    4.9026399770
22   
torsion grid (75,)
C        1.8299647829   -1.0965686611   -0.1040612284
C        0.7361047742   -0.4726999986    0.5025083666
C        2.8422189071   -1.6633869027    0.6684713217
C        1.6843526292   -0.9915672773    2.6853681837
C        0.6778803951   -0.4258014837    1.8973845763
C        2.7804839998   -1.6159161042    2.0731165160
C        4.7769055554   -2.7219102321    5.5892312890
C        3.6814582195   -2.1107471491    4.7142116258
C       -0.5201300442    0.2082526403    2.5544916133
F       -0.8699784180    1.3744735921    1.9541624782
F       -1.6148077025   -0.5982892361    2.4927832012
F       -0.3107738606    0.4812715949    3.8661288375
S        4.1264698055   -2.3642902175    2.9560616619
H        1.8956927789   -1.1406268047   -1.1876264925
H       -0.0507211818   -0.0260420073   -0.0970384656
H        3.6878253220   -2.1440051562    0.1825021745
H        1.6030136763   -0.9314296489    3.7630252513
H        4.8790341654   -3.7958202786    5.4068792968
H        5.7453207491   -2.2480516994    5.4031683323
H        4.5268350198   -2.5793449704    6.6452566576
H        3.5875290990   -1.0385969430    4.9100017367
H        2.7185761723   -2.5902448323    4.9133754852
22   
torsion grid (90,)
C        1.8469578494   -1.0701958585   -0.1166795638
C        0.7498223388   -0.4467770711    0.4873825088
C        2.8525541823   -1.6435921803    0.6577964225
C        1.6867880825   -0.9800632929    2.6717747068
C        0.6845164412   -0.4073182231    1.8808207112
C        2.7839581170   -1.6036362462    2.0634674320
C        4.7539165525   -2.7442822837    5.5825798270
C        3.6673514396   -2.1206628071    4.7052785057
C       -0.5133775951    0.2082009023    2.5552144891
F       -1.0751099830    1.1901084560    1.8093321675
F       -1.4903776977   -0.7122526516    2.7858377576
F       -0.2026226225    0.7485317827    3.7615974424
S        4.1244158906   -2.3593702905    2.9482264966
H        1.9188299025   -1.1078032812   -1.2001073312
H       -0.0320645644    0.0053289263   -0.1135596404
H        3.6997597485   -2.1235681525    0.1740052372
H        1.6013517725   -0.9226864994    3.7498215890
H        4.8529144194   -3.8168902535    5.3911063581
H        5.7256225914   -2.2728052266    5.4079234026
H        4.4967829060   -2.6102712972    6.6380261223
H        3.5760001551   -1.0500310043    4.9104317057
H        2.7011614571   -2.5983393858    4.8925407211
22   
torsion grid (105,)
C        1.8664340949   -1.0566525430   -0.1028846654
C        0.7599680204   -0.4444240665    0.4982918695
C        2.8671144969   -1.6339507089    0.6733182643
C        1.6807591064   -0.9997624478    2.6839852979
C        0.6817279814   -0.4222528554    1.8900260711
C        2.7854971033   -1.6113389551    2.0797171015
C        4.7413901173   -2.7649925842    5.6024267285
C        3.6553691231   -2.1439102293    4.7226715251
C       -0.5074253104    0.1922753765    2.5804479806
F       -1.2491553633    0.9630246952    1.7509492834
F       -1.3420060345   -0.7566213227    3.0879346682
F       -0.1377274261    0.9732296970    3.6299732927
S        4.1203693427   -2.3743020922    2.9666284583
H        1.9479478035   -1.0817280852   -1.1859927891
H       -0.0193593162    0.0090600281   -0.1042077439
H        3.7208860717   -2.1045916156    0.1918810079
H        1.5840883837   -0.9569850486    3.7622745632
H        4.8476810023   -3.8361718123    5.4068086076
H        5.7110631882   -2.2869876111    5.4344669330
H        4.4783495519   -2.6372985941    6.6571985795
H        3.5579428198   -1.0743341634    4.9305885326
H        2.6908456316   -2.6269757343    4.9046518409
22   
torsion grid (120,)
C        1.8728609848   -1.0259164224   -0.1043024630
C        0.7581344566   -0.4286001971    0.4977514890
C        2.8746206523   -1.6022467211    0.6705529559
C        1.6735391948   -0.9989717496    2.6816747387
C        0.6724281739   -0.4226961089    1.8886160355
C        2.7858945974   -1.5951750895    2.0771155123
C        4.7244430404   -2.7860028288    5.5968328707
C        3.6424226338   -2.1565734203    4.7181001700
C       -0.5044915393    0.2041385910    2.5886159089
F       -1.4009093039    0.7375845159    1.7272892930
F       -1.1759603310   -0.6989780090    3.3540919359
F       -0.1183989226    1.2012982074    3.4306809791
S        4.1217239500   -2.3583001734    2.9623840222
H        1.9587572992   -1.0409770973   -1.1872593657
H       -0.0238601969    0.0211000789   -0.1038621922
H        3.7337512419   -2.0624087561    0.1885080097
H        1.5686362805   -0.9725957300    3.7599624730
H        4.8363157326   -3.8538439211    5.3866887062
H        5.6934550043   -2.3019501716    5.4428996896
H        4.4532560897   -2.6743345218    6.6513611535
H        3.5385162385   -1.0907036472    4.9414355182
H        2.6787459156   -2.6466546831    4.8851439236
22   
torsion grid (135,)
C        1.8858430037   -1.0030841584   -0.1138940146
C        0.7617304211   -0.4222114838    0.4857688985
C        2.8843168295   -1.5840989849    0.6623014349
C        1.6579946074   -1.0210493075    2.6701776948
C        0.6611092541   -0.4399405293    1.8760534878
C        2.7808208236   -1.6002093765    2.0673973081
C        4.7091659293   -2.8029393066    5.5890218419
C        3.6256258351   -2.1775109696    4.7092671430
C       -0.5117662117    0.2033872339    2.5680249517
F       -1.5270509144    0.4839870217    1.7179182905
F       -1.0185651528   -0.5886197894    3.5500601422
F       -0.1633294382    1.3757303602    3.1666220603
S        4.1103530365   -2.3725122062    2.9542693461
H        1.9819545909   -1.0023037308   -1.1960905002
H       -0.0188698371    0.0286515539   -0.1170126068
H        3.7510561552   -2.0314974355    0.1818694300
H        1.5388310787   -1.0183506614    3.7470901309
H        4.8275341006   -3.8696526035    5.3766189305
H        5.6757732374   -2.3131076167    5.4384042202
H        4.4348982691   -2.6954889487    6.6431912495
H        3.5151991666   -1.1126592715    4.9343490165
H        2.6644296402   -2.6733488926    4.8734850241
22   
torsion grid (150,)
C        1.8948537304   -0.9813815484   -0.1192577981
C        0.7653772834   -0.4150669948    0.4815550931
C        2.8939216982   -1.5649096431    0.6559654741
C        1.6537005857   -1.0315874171    2.6639500663
C        0.6570581867   -0.4497545746    1.8723122248
C        2.7835858309   -1.5975932656    2.0592327785
C        4.7012186598   -2.8294853138    5.5772155406
C        3.6185194903   -2.1996072078    4.6995745898
C       -0.5207735456    0.2026492876    2.5474280467
F       -1.6265093421    0.2044961279    1.7640235006
F       -0.8534236446   -0.4149077017    3.7100095755
F       -0.2648403242    1.5027386950    2.8621780730
S        4.1125645993   -2.3725746212    2.9448151343
H        1.9958429470   -0.9685232161   -1.2009351057
H       -0.0166492323    0.0353439675   -0.1204411095
H        3.7653855044   -2.0019709773    0.1745886225
H        1.5288641225   -1.0430709524    3.7395985350
H        4.8260032137   -3.8931073760    5.3532898050
H        5.6660003655   -2.3331256647    5.4365829046
H        4.4216324090   -2.7353824347    6.6312649611
H        3.5016651499   -1.1379519780    4.9361819021
H        2.6591115918   -2.7020244004    4.8538404992
22   
torsion grid (165,)
C        1.9009399100   -0.9583295546   -0.1162616200
C        0.7720520366   -0.3992299144    0.4893065450
C        2.9011465408   -1.5488743006    0.6542097524
C        1.6599407544   -1.0329461049    2.6668977790
C        0.6638670144   -0.4460159265    1.8811943120
C        2.7907329871   -1.5935266954    2.0559520409
C        4.7008188394   -2.8641076168    5.5646214584
C        3.6211766679   -2.2223130845    4.6918818123
C       -0.5299551457    0.1938627405    2.5403251852
F       -1.6864217144   -0.1020445610    1.8938048023
F       -0.6822805654   -0.1948467103    3.8305930731
F       -0.4323109858    1.5512919539    2.5509399798
S        4.1198855140   -2.3743013317    2.9364280512
H        2.0023808167   -0.9352410953   -1.1977200136
H       -0.0104321676    0.0565174150   -0.1090636736
H        3.7728323981   -1.9808923957    0.1686918671
H        1.5367781026   -1.0510252742    3.7420934419
H        4.8244695099   -3.9252087537    5.3284817107
H        5.6667258558   -2.3676764468    5.4321736475
H        4.4188315179   -2.7818903978    6.6190291069
H        3.5046924088   -1.1635904996    4.9414100707
H        2.6608756918   -2.7256024962    4.8374158748
22   
torsion grid (180,)
C        1.9205555700   -0.9239785939   -0.1034783792
C        0.7979522347   -0.3556740097    0.5037979230
C        2.9127679719   -1.5308242113    0.6656190382
C        1.6743026791   -1.0115398550    2.6793073702
C        0.6881450978   -0.4067757503    1.8960332526
C        2.8002144972   -1.5811461585    2.0664631359
C        4.6869353153   -2.8948431872    5.5719605780
C        3.6155952013   -2.2378377180    4.7003394426
C       -0.5248815658    0.2074921848    2.5444922216
F       -1.6762791990   -0.3693560308    2.1090196612
F       -0.5112666792    0.0919582460    3.8948953630
F       -0.6311433120    1.5331419429    2.2614218239
S        4.1209592121   -2.3775516464    2.9457276971
H        2.0247142618   -0.8946501666   -1.1845285277
H        0.0241662762    0.1174259597   -0.0929168696
H        3.7808230373   -1.9688488110    0.1789917101
H        1.5514311361   -1.0301986627    3.7542937094
H        4.8049082884   -3.9544532725    5.3264309041
H        5.6566070064   -2.4034121019    5.4486824157
H        4.4005186589   -2.8206590604    6.6257730854
H        3.5053555456   -1.1806935582    4.9591396752
H        2.6511556892   -2.7356923001    4.8370240960
