26
0 1 C13H12O
C                     1.740984720314    -1.051157187933    -0.105329601638
C                     1.165136535045    -6.014544084925     4.961124373368
C                     2.790894060758    -1.670473783197     0.581336213328
C                     0.708796138211    -0.441025944856     0.614981512053
C                     2.371328596050    -5.635174174999     5.565670193321
C                     0.412434680084    -5.052902005938     4.284935917917
C                     2.813493065675    -1.675814361318     1.978782110076
C                     0.728919032998    -0.454398295304     2.013010302791
C                     2.812749968577    -4.315110787826     5.496607492519
C                     0.843801050596    -3.722593668591     4.204150079195
C                     1.781965854541    -1.067242211890     2.703748871949
C                     2.048658955309    -3.353854558403     4.817296161260
C                     1.810739860079    -1.032361485465     4.219654569293
O                     2.572177123721    -2.082542060981     4.813076507474
H                     1.723919289739    -1.049207053493    -1.192118222663
H                     0.822133630408    -7.043956465795     5.014944690837
H                     3.592405454179    -2.153013569103     0.027683625312
H                    -0.114552271403     0.036781187000     0.090054509861
H                     2.970564165027    -6.370937501371     6.096122541148
H                    -0.521074697934    -5.333207714191     3.803446130724
H                     3.622848421139    -2.164697844249     2.512867862717
H                    -0.083702197831     0.011020231831     2.568414356247
H                     3.742869141044    -4.004421481005     5.963965395922
H                     0.252687812042    -3.004413212854     3.648703310555
H                     2.307164668607    -0.118829298582     4.561111895467
H                     0.790733995720    -1.024967006545     4.624852952108
