29
0 1 C12H15NO
C                     7.443143310829     2.262186738284    -0.715665329373
C                     7.503221884370     1.839060249621     0.617164293962
C                     6.426560508633     1.786845260015    -1.551212908849
C                     6.551760926203     0.944464335840     1.112145967443
C                     5.461854932814     0.909533708004    -1.049291324964
C                     5.514178811216     0.489210990707     0.287773478217
C                     4.553368106670    -0.528157782524     0.840963216093
C                     0.511190344985    -0.310225890462    -0.471707089187
C                     1.531350104661     0.781428229258    -0.824306876544
C                     1.221449520597    -1.623873332045    -0.116658052736
C                     2.574816590854     0.926507310458     0.287046637443
C                     2.278388990869    -1.413609323601     0.972905171407
N                     3.215641170504    -0.362160707195     0.567222818989
O                     4.984701197227    -1.497964690155     1.471337630645
H                     8.189760696805     2.950466453783    -1.103506366297
H                     8.297753335130     2.197937602727     1.266309666656
H                     6.387299745393     2.096051690580    -2.592599654520
H                     6.607759591076     0.582841293858     2.134698110830
H                     4.678316006166     0.533146404882    -1.701784531989
H                    -0.187704755320    -0.463737675102    -1.301388517029
H                    -0.086678830225     0.021891436776     0.388249604065
H                     2.041760077305     0.524443212510    -1.761153431264
H                     1.030649179139     1.744126773503    -0.978768433734
H                     0.497768638179    -2.372793474988     0.224662078955
H                     1.713424499127    -2.031019986597    -1.008731690968
H                     3.328412300209     1.667671128395     0.028522069560
H                     2.078809297854     1.275200473516     1.207105150990
H                     1.794575306080    -1.124825392084     1.918797793581
H                     2.851928529429    -2.320092065689     1.162264520986
