
  -OEChem-12122420523D

 22 23  0     0  0  0  0  0  0999 V2000
    1.6447   -1.3234   -0.2655 C   0  0  0  0  0  0  0  0  0  0  0  0
    2.4225   -2.2835    0.3918 C   0  0  0  0  0  0  0  0  0  0  0  0
    1.0887   -0.2598    0.4544 C   0  0  0  0  0  0  0  0  0  0  0  0
    2.6403   -2.1817    1.7660 C   0  0  0  0  0  0  0  0  0  0  0  0
    1.3253   -0.1428    1.8240 C   0  0  0  0  0  0  0  0  0  0  0  0
    3.7762    3.0128    3.2123 C   0  0  0  0  0  0  0  0  0  0  0  0
    3.3253    3.4643    4.4094 C   0  0  0  0  0  0  0  0  0  0  0  0
    2.1057   -1.1025    2.4843 C   0  0  0  0  0  0  0  0  0  0  0  0
    2.8699    1.3551    4.1859 C   0  0  0  0  0  0  0  0  0  0  0  0
    2.3173   -1.0813    3.9577 C   0  0  0  0  0  0  0  0  0  0  0  0
    3.4885    1.6515    3.0831 N   0  0  0  0  0  0  0  0  0  0  0  0
    2.3375    0.1566    4.6272 N   0  0  0  0  0  0  0  0  0  0  0  0
    2.4043   -2.1025    4.6289 O   0  0  0  0  0  0  0  0  0  0  0  0
    2.7225    2.3939    5.0573 O   0  0  0  0  0  0  0  0  0  0  0  0
    1.4678   -1.4062   -1.3349 H   0  0  0  0  0  0  0  0  0  0  0  0
    2.8506   -3.1126   -0.1649 H   0  0  0  0  0  0  0  0  0  0  0  0
    0.4736    0.4788   -0.0526 H   0  0  0  0  0  0  0  0  0  0  0  0
    3.2212   -2.9296    2.2967 H   0  0  0  0  0  0  0  0  0  0  0  0
    0.8914    0.6839    2.3768 H   0  0  0  0  0  0  0  0  0  0  0  0
    4.2975    3.5547    2.4350 H   0  0  0  0  0  0  0  0  0  0  0  0
    3.3382    4.4031    4.9409 H   0  0  0  0  0  0  0  0  0  0  0  0
    2.3383    0.0407    5.6369 H   0  0  0  0  0  0  0  0  0  0  0  0
  1  2  1  0  0  0  0
  1  3  2  0  0  0  0
  1 15  1  0  0  0  0
  2  4  2  0  0  0  0
  2 16  1  0  0  0  0
  3  5  1  0  0  0  0
  3 17  1  0  0  0  0
  4  8  1  0  0  0  0
  4 18  1  0  0  0  0
  5  8  2  0  0  0  0
  5 19  1  0  0  0  0
  6  7  2  0  0  0  0
  6 11  1  0  0  0  0
  6 20  1  0  0  0  0
  7 14  1  0  0  0  0
  7 21  1  0  0  0  0
  8 10  1  0  0  0  0
  9 11  2  0  0  0  0
  9 12  1  0  0  0  0
  9 14  1  0  0  0  0
 10 12  1  0  0  0  0
 10 13  2  0  0  0  0
 12 22  1  0  0  0  0
M  END
$$$$
