25
0 1 C13H10O2
C                     2.068578206830    -0.610016538624    -0.057157218999
C                     0.819055126110    -0.417201450188     0.542288322204
C                     3.139936179145    -1.102028130926     0.699520307304
C                    -1.421770559133    -1.473806517505     6.447457277466
C                    -1.740871455224    -0.111570543032     6.465490816581
C                     0.643972670752    -0.700999728032     1.897781510075
C                     2.959501921817    -1.404576744875     2.048580054987
C                    -0.348152259281    -1.912043989509     5.672891905118
C                    -0.987607047846     0.797477893594     5.720538476114
C                     1.712741416016    -1.197033987902     2.659659689460
C                     0.400607601176    -1.022110455044     4.888993249094
C                     0.081929390674     0.347880950125     4.935008959428
C                     1.547054454408    -1.580103497419     4.093846645701
O                     2.302745726683    -2.395332619378     4.617624068613
O                     0.868141852885     1.218016070685     4.224000558846
H                     2.207000566809    -0.380759555740    -1.110873862471
H                    -0.015507241819    -0.045459471001    -0.046585829986
H                     4.110375919219    -1.252706462650     0.233754645210
H                    -1.999984912673    -2.181982671696     7.033513121792
H                    -2.570796135246     0.249432065128     7.067205242116
H                    -0.326759963617    -0.551995464288     2.360926125694
H                     3.772428948281    -1.802925436708     2.648000581983
H                    -0.069823948678    -2.961728471973     5.656312836026
H                    -1.221310325823     1.860577616319     5.756132189454
H                     0.545937872214     2.122957293099     4.360793926159
