22   
torsion grid (-165,)
C        2.1189706186   -0.5090478691    0.2614559886
C        0.9343010326   -0.1602727255    0.9146140385
C        3.0797548099   -1.2870155418    0.9078916290
C        1.6575584580   -1.3653367246    2.8828347331
C        0.6827975745   -0.5915532393    2.2237330178
C        2.8446026528   -1.7097154687    2.2201003464
C        1.3813823407   -1.8913729310    4.2665394829
C       -0.6163406437   -0.2362632260    2.9089071997
C        3.0245218353   -0.3193691354    5.1016678668
O        0.4698953880   -2.6569993356    4.4989415431
O        3.7527120225   -2.4732880568    2.9151808594
O        2.1602996945   -1.4552015240    5.2884536189
H        2.2973144157   -0.1742610787   -0.7568958528
H        0.1932262105    0.4470337926    0.4022767102
H        4.0023681780   -1.5641295635    0.4008981683
H       -1.2313333470   -1.1289468783    3.0544923519
H       -0.4479377065    0.1943696222    3.9016545356
H       -1.1818314817    0.4865109317    2.3158152078
H        3.3153968599   -0.0114861042    6.1068175885
H        2.5008315301    0.5011860232    4.6040524565
H        3.9123535148   -0.5990162210    4.5300580088
H        4.4859202726   -2.7117814889    2.3261725565
22   
torsion grid (-150,)
C        2.1038057032   -0.5270719260    0.2629720289
C        0.9185960750   -0.1869176094    0.9193767766
C        3.0736401350   -1.2917655235    0.9100848600
C        1.6608507716   -1.3731870042    2.8956268261
C        0.6749564923   -0.6136062984    2.2312473654
C        2.8501756501   -1.7083660690    2.2267019786
C        1.4014853206   -1.8790040872    4.2882338549
C       -0.6284978718   -0.2567484235    2.9078686484
C        3.0721576401   -0.3582486366    5.1374674361
O        0.4101785227   -2.5160313661    4.5775210733
O        3.7724196081   -2.4631817814    2.9102303155
O        2.3026136856   -1.5683851966    5.2566789962
H        2.2747368194   -0.1961938846   -0.7579866733
H        0.1701461892    0.4107800390    0.4065676085
H        3.9960695067   -1.5647080421    0.4003409093
H       -1.2479243724   -1.1469300538    3.0461435000
H       -0.4686591368    0.1693945203    3.9033926928
H       -1.1841516649    0.4699059686    2.3100486350
H        3.4269358137   -0.1408620475    6.1458394290
H        2.4539806609    0.4702426444    4.7811476662
H        3.9257475780   -0.5017976226    4.4701777982
H        4.5061582604   -2.6815138511    2.3140473243
22   
torsion grid (-135,)
C        2.1210686793   -0.5674325242    0.2086954065
C        0.9283082448   -0.2063976754    0.8390368134
C        3.0806543496   -1.3122785394    0.8917340980
C        1.6415866085   -1.3337294594    2.8634652929
C        0.6656531206   -0.5923567711    2.1596543412
C        2.8418907650   -1.6886572924    2.2181855218
C        1.3637558050   -1.7841382468    4.2690371155
C       -0.6498380990   -0.2039059650    2.7949984729
C        3.0303230769   -0.3298229182    5.2018509127
O        0.3070990325   -2.2781225448    4.6027707839
O        3.7608018677   -2.4218048210    2.9256548586
O        2.3409393388   -1.5903551219    5.1999981855
H        2.3058652790   -0.2680561169   -0.8195960086
H        0.1880904815    0.3770123160    0.2987151585
H        4.0093981214   -1.6014334806    0.4027076385
H       -1.2898406175   -1.0802209622    2.9260730885
H       -0.5131012169    0.2313032433    3.7892585463
H       -1.1726492884    0.5240719939    2.1696234558
H        3.6511840771   -0.3383163766    6.0983375000
H        2.3163744826    0.4980618366    5.2615182202
H        3.6662960985   -0.2114270523    4.3201811685
H        4.5001922243   -2.6463159017    2.3386640239
22   
torsion grid (-120,)
C        2.1347991648   -0.6250738032    0.1424110725
C        0.9374310156   -0.2617447232    0.7619481393
C        3.0960019600   -1.3481862571    0.8441559440
C        1.6486917101   -1.3493294231    2.8142774875
C        0.6720007981   -0.6247951191    2.0881059239
C        2.8578406827   -1.7032259371    2.1773725798
C        1.3696375870   -1.7602968973    4.2295253192
C       -0.6489681757   -0.2184451219    2.7007850762
C        3.0246453038   -0.4039178539    5.2874920073
O        0.2756797108   -2.1204718056    4.6113693654
O        3.7884880062   -2.4170715043    2.8857263352
O        2.4126527633   -1.6886417033    5.1115285276
H        2.3217408362   -0.3435924949   -0.8905842527
H        0.1957178398    0.3073312820    0.2086895905
H        4.0293480010   -1.6384307768    0.3644828451
H       -1.2966042229   -1.0873325685    2.8414758189
H       -0.5223929925    0.2344679725    3.6879791348
H       -1.1580360942    0.4998790611    2.0530972912
H        3.8734108627   -0.5624312682    5.9533481129
H        2.3155428257    0.2888006814    5.7548602248
H        3.3799255508    0.0126500226    4.3387578435
H        4.5239134610   -2.6380804710    2.2921492257
22   
torsion grid (-105,)
C        2.1243548710   -0.6540150681    0.1035804197
C        0.9390975804   -0.2728526834    0.7355106211
C        3.0864975493   -1.3813457111    0.7985000813
C        1.6682141826   -1.3473296059    2.7902330319
C        0.6880332364   -0.6192191236    2.0685642408
C        2.8651611990   -1.7231973561    2.1386867425
C        1.4149494445   -1.7121003045    4.2199112824
C       -0.6202792078   -0.1873722186    2.6910266536
C        2.9805354365   -0.3750278871    5.3901525784
O        0.3168784795   -1.9840155655    4.6578205878
O        3.7958036963   -2.4522361107    2.8280992639
O        2.5092512291   -1.6851001860    5.0499036120
H        2.3003743862   -0.3838195445   -0.9343703474
H        0.1960620534    0.2988111100    0.1868360289
H        4.0092204135   -1.6870260786    0.3079223591
H       -1.2742644758   -1.0461044741    2.8612841768
H       -0.4759282425    0.2863773458    3.6657915818
H       -1.1315986576    0.5205057077    2.0336702252
H        3.8850699180   -0.5197862852    5.9818551185
H        2.2301897462    0.1560038197    5.9876494894
H        3.2227310361    0.2088038808    4.4933716935
H        4.5123340079   -2.6887972985    2.2174415959
22   
torsion grid (-90,)
C        2.1103841307   -0.6965770664    0.0692330340
C        0.9578658197   -0.2783700795    0.7376218028
C        3.0751101771   -1.4488095619    0.7346112502
C        1.7327786418   -1.3523821288    2.7726422463
C        0.7451889124   -0.6079326536    2.0817986707
C        2.8918341101   -1.7744777045    2.0843910534
C        1.5338092872   -1.6776461152    4.2185842949
C       -0.5270326246   -0.1429394996    2.7533612225
C        2.8704765585   -0.2643024665    5.5466233069
O        0.4666578246   -1.9879302560    4.7031348312
O        3.8081676815   -2.5422234711    2.7481964072
O        2.6646376198   -1.5741139311    4.9990405675
H        2.2572474367   -0.4388751365   -0.9764020221
H        0.2116028562    0.3087355422    0.2100097101
H        3.9683073178   -1.7880575783    0.2125202292
H       -1.1828795514   -0.9883238324    2.9757328916
H       -0.3299436208    0.3538783089    3.7077410973
H       -1.0607918243    0.5563031749    2.1048759934
H        3.7992322401   -0.3137327317    6.1162099328
H        2.0439229258    0.0113979760    6.2117429315
H        2.9729673203    0.4829106718    4.7488904885
H        4.5036090903   -2.8026456120    2.1232579835
22   
torsion grid (-75,)
C        2.0719931049   -0.7711733372    0.0027592770
C        0.9408689155   -0.3288560987    0.6916957386
C        3.0513237532   -1.5101135815    0.6621683514
C        1.7699457728   -1.3446293748    2.7339393223
C        0.7649878034   -0.6179983406    2.0506896443
C        2.9050317255   -1.7952471879    2.0253178819
C        1.6121195984   -1.6225260328    4.1939334139
C       -0.4862431609   -0.1294293842    2.7450656591
C        2.8234434949   -0.3086385624    5.7333931774
O        0.5648104399   -1.9451646249    4.7147033222
O        3.8301006325   -2.5545284367    2.6860381423
O        2.7708565535   -1.4958636326    4.9266370372
H        2.1900072318   -0.5443901010   -1.0536415705
H        0.1818948129    0.2459761906    0.1687100087
H        3.9268819304   -1.8708103155    0.1247969605
H       -1.1341599708   -0.9663800713    3.0171776308
H       -0.2599569970    0.4012983147    3.6744645526
H       -1.0406251898    0.5469952364    2.0897204469
H        3.7561327947   -0.3639480212    6.2958848219
H        1.9755980015   -0.2675811726    6.4254876957
H        2.8340404778    0.5863138425    5.0984840434
H        4.5137210994   -2.8295171201    2.0544745462
22   
torsion grid (-60,)
C        2.0245089721   -0.8468144572   -0.0672516545
C        0.9088508145   -0.3768112489    0.6283770860
C        3.0278014226   -1.5430899360    0.6025422614
C        1.8022219638   -1.2784568177    2.6966950519
C        0.7732958025   -0.5958117182    2.0050787098
C        2.9210399814   -1.7572778555    1.9822094221
C        1.6782638951   -1.4885567951    4.1717532348
C       -0.4620895725   -0.0797281643    2.7083014620
C        2.8165913057   -0.3309649058    5.8946038983
O        0.6486893615   -1.8198941805    4.7256967983
O        3.8706190963   -2.4736961549    2.6569012066
O        2.8543902918   -1.3272546766    4.8579019336
H        2.1117067498   -0.6750104589   -1.1369136604
H        0.1308597491    0.1645219752    0.0975714860
H        3.8917159412   -1.9250559310    0.0609907427
H       -1.0945482787   -0.9054096558    3.0437508286
H       -0.2136547365    0.5025704965    3.6004466126
H       -1.0407734751    0.5566298510    2.0340596856
H        3.7574651390   -0.4223218087    6.4383017254
H        1.9761300266   -0.5008104829    6.5737993788
H        2.7469016069    0.6683675153    5.4491934733
H        4.5412732799   -2.7733097273    2.0227440222
22   
torsion grid (-45,)
C        1.9836570693   -0.9056754234   -0.1215974449
C        0.8811850291   -0.4041520961    0.5728096717
C        3.0061768668   -1.5577783562    0.5633020397
C        1.8256177693   -1.1847321271    2.6671729801
C        0.7781465943   -0.5463905331    1.9624650903
C        2.9309987025   -1.6951354380    1.9547921064
C        1.7284653847   -1.3215358677    4.1538274870
C       -0.4438457555    0.0026637221    2.6643712680
C        2.8272262376   -0.3353951777    6.0059277217
O        0.7128448593   -1.6494703148    4.7388711240
O        3.9027108856   -2.3656208318    2.6463066031
O        2.9132682762   -1.1124152377    4.7961861796
H        2.0457568010   -0.7930599636   -1.2008325968
H        0.0875532360    0.1025027485    0.0310318203
H        3.8610053737   -1.9638640874    0.0248490493
H       -1.0576316867   -0.8050363680    3.0704376232
H       -0.1771519448    0.6447055994    3.5091346886
H       -1.0473094767    0.5887175120    1.9666470114
H        3.8313906776   -0.3331277793    6.4305987114
H        2.1193680560   -0.7776249739    6.7110669526
H        2.5247191277    0.6895076163    5.7664395722
H        4.5627028624   -2.6914433583    2.0139553252
22   
torsion grid (-30,)
C        1.9758703885   -0.9930863868   -0.1649491497
C        0.8866234854   -0.4534079075    0.5219469538
C        3.0029519091   -1.6254891170    0.5324742384
C        1.8520389585   -1.1580919418    2.6306501717
C        0.8021952534   -0.5378902776    1.9176515653
C        2.9439524359   -1.7057826744    1.9290932281
C        1.7676054108   -1.2499139584    4.1226495634
C       -0.4022121123    0.0462864350    2.6213083141
C        2.8018436184   -0.4164459703    6.0768337080
O        0.7768441398   -1.6203377773    4.7264681787
O        3.9192307695   -2.3512011987    2.6416562832
O        2.9347382721   -0.9368654963    4.7392982705
H        2.0248120487   -0.9251062779   -1.2485734891
H        0.0899716838    0.0378810014   -0.0295669053
H        3.8479272836   -2.0589186504   -0.0001552865
H       -1.0130228649   -0.7416544447    3.0691162968
H       -0.1131389861    0.7181561608    3.4353120018
H       -1.0163657001    0.6110011254    1.9154198511
H        3.8108009954   -0.1403461162    6.3833626344
H        2.3894641045   -1.1687496457    6.7533582049
H        2.1526278978    0.4638455526    6.0743262529
H        4.5716388294   -2.7095566593    2.0192363503
22   
torsion grid (-15,)
C        1.9433781708   -1.0246552301   -0.1663539218
C        0.8570655191   -0.4606553841    0.5060977108
C        2.9758636004   -1.6271319205    0.5496766356
C        1.8366694580   -1.0816199816    2.6330704749
C        0.7823422545   -0.4909533035    1.9043781405
C        2.9253243439   -1.6542062857    1.9488155770
C        1.7587652426   -1.1294780226    4.1278086898
C       -0.4149444498    0.1166674901    2.5996013214
C        2.7916858541   -0.4411392618    6.1330028875
O        0.7890085061   -1.5260500291    4.7509917476
O        3.9064217444   -2.2685779204    2.6828433672
O        2.8978314551   -0.7113344523    4.7211567415
H        1.9856716989   -0.9990141786   -1.2521033050
H        0.0557473745    0.0071142912   -0.0589766672
H        3.8189118248   -2.0783250750    0.0289691478
H       -1.0139886903   -0.6545541805    3.0905825339
H       -0.1153269843    0.8248673115    3.3786145948
H       -1.0436049115    0.6477934377    1.8805834590
H        3.7599702421   -0.0330458741    6.4223982201
H        2.5797141321   -1.3582646571    6.6877422998
H        1.9955741235    0.2837845570    6.3212444332
H        4.5552547589   -2.6528252682    2.0722953378
22   
torsion grid (0,)
C        1.9267297269   -1.0501681269   -0.1531646692
C        0.8351176857   -0.4765431436    0.5027470844
C        2.9642450569   -1.6271687649    0.5770212854
C        1.8186069559   -1.0356201988    2.6435767819
C        0.7601878988   -0.4710016750    1.9013517406
C        2.9112836566   -1.6182195055    1.9761191181
C        1.7482905821   -1.0506528058    4.1387829583
C       -0.4397464110    0.1445782252    2.5843438741
C        2.8568808282   -0.5122304911    6.1489417070
O        0.7935418034   -1.4541588051    4.7803340620
O        3.8942655171   -2.2057830867    2.7304115296
O        2.8632357147   -0.5459907960    4.7081250528
H        1.9695456957   -1.0519377455   -1.2391823391
H        0.0310818628   -0.0294587321   -0.0751383468
H        3.8108261575   -2.0851049072    0.0680375935
H       -1.0296159865   -0.6186180149    3.0985981868
H       -0.1424569334    0.8762190775    3.3423718878
H       -1.0767317132    0.6502016464    1.8543594602
H        3.8146338223   -0.0758465177    6.4320230100
H        2.7587499920   -1.5224282367    6.5535196349
H        2.0294343133    0.1016547746    6.5132651359
H        4.5493227043   -2.6001714230    2.1331861566
22   
torsion grid (15,)
C        1.9021390843   -1.0402215186   -0.1742759070
C        0.8020920930   -0.4732916336    0.4736327510
C        2.9535053668   -1.5843667168    0.5616733133
C        1.8042715833   -0.9714980750    2.6204778869
C        0.7325712157   -0.4414408148    1.8721839982
C        2.9044453356   -1.5476721469    1.9601985091
C        1.7486391147   -0.9612764204    4.1155573596
C       -0.4751239310    0.1648847852    2.5491513277
C        2.9960609983   -0.5785106162    6.0820802375
O        0.8034563417   -1.3604028674    4.7735535483
O        3.8989662032   -2.1038456797    2.7241573302
O        2.8450564174   -0.3917360999    4.6604510582
H        1.9408073299   -1.0627749383   -1.2602051503
H       -0.0116326914   -0.0522210824   -0.1102470515
H        3.8059988499   -2.0373413439    0.0581260370
H       -1.0541608806   -0.6012678426    3.0714598385
H       -0.1874078086    0.9077443754    3.2997056378
H       -1.1195445700    0.6537065964    1.8142556887
H        3.9574996852   -0.1306657058    6.3327494950
H        2.9934886973   -1.6443387045    6.3226127720
H        2.1869996820   -0.0842421898    6.6253992828
H        4.5591303522   -2.4997040089    2.1335641822
22   
torsion grid (30,)
C        1.9217400503   -1.0811192963   -0.1351259295
C        0.8042060546   -0.5038527959    0.4724683780
C        2.9594988227   -1.5969714559    0.6396406130
C        1.7620277850   -0.9303721670    2.6543737898
C        0.7024975784   -0.4314021414    1.8675330101
C        2.8794996957   -1.5196805061    2.0347530372
C        1.6848557789   -0.8736864333    4.1463247124
C       -0.5236188148    0.1874975992    2.4980589040
C        3.0800934993   -0.6588398592    6.0467285652
O        0.7184780565   -1.2220259458    4.8007268140
O        3.8577518558   -2.0527787695    2.8361338827
O        2.7777776145   -0.2836117597    4.6877813148
H        1.9844565587   -1.1346233829   -1.2188714142
H        0.0012880188   -0.1054609585   -0.1414769339
H        3.8248522350   -2.0598912515    0.1681413010
H       -1.1129079037   -0.5669720873    3.0258361178
H       -0.2574056787    0.9503505860    3.2361047904
H       -1.1510613594    0.6536719924    1.7342839990
H        3.9906668394   -0.1179845509    6.3043236991
H        3.2527507318   -1.7369550135    6.0993044326
H        2.2660343798   -0.3823857331    6.7208836788
H        4.5362642406   -2.4553779283    2.2714159391
22   
torsion grid (45,)
C        1.9499928705   -1.1292192900   -0.1024897476
C        0.8189152879   -0.5347189291    0.4616583238
C        2.9709197485   -1.6187978717    0.7110264888
C        1.7286716338   -0.8873990779    2.6771507396
C        0.6850738106   -0.4171721703    1.8509720428
C        2.8595167411   -1.4957915602    2.1001235971
C        1.6279565515   -0.7766372065    4.1635420398
C       -0.5571315350    0.2191247217    2.4303299402
C        3.1845019861   -0.7475292231    5.9644220389
O        0.6310448549   -1.0518686242    4.8049239926
O        3.8194262453   -2.0054035204    2.9393990125
O        2.7319187069   -0.1987401683    4.7111739014
H        2.0364551208   -1.2172992814   -1.1823330552
H        0.0297158977   -0.1575946432   -0.1827303207
H        3.8461800919   -2.0964821901    0.2737888888
H       -1.1655529826   -0.5225371717    2.9545952472
H       -0.3121056801    0.9952605785    3.1613584841
H       -1.1584258187    0.6705992663    1.6372117776
H        3.8972350863   -0.0294568134    6.3711768112
H        3.6837535865   -1.7012278797    5.7705099331
H        2.3500431607   -0.8837955471    6.6562963198
H        4.5118327955   -2.4215742074    2.4019560406
22   
torsion grid (60,)
C        1.9668643757   -1.1548757122   -0.0692692086
C        0.8233968505   -0.5583652858    0.4662003750
C        2.9814043500   -1.6156486974    0.7682070837
C        1.7072539353   -0.8523742153    2.7038664179
C        0.6696593237   -0.4110873384    1.8506398768
C        2.8513480943   -1.4613839917    2.1520687591
C        1.5826712714   -0.6905998239    4.1841158032
C       -0.5880862677    0.2307127625    2.3892390341
C        3.2553226716   -0.8278514851    5.8828931879
O        0.5534447632   -0.8813241928    4.8026225108
O        3.8090160726   -1.9434742282    3.0101199951
O        2.6882395670   -0.1267798114    4.7593032657
H        2.0681900464   -1.2670594755   -1.1455467716
H        0.0396557151   -0.2027969135   -0.1967815038
H        3.8665658993   -2.0953726435    0.3536935254
H       -1.2047794890   -0.5019737742    2.9160951096
H       -0.3644290208    1.0235215078    3.1087519658
H       -1.1728044596    0.6606183174    1.5720821080
H        3.9464518177   -0.1319339156    6.3601915331
H        3.7975558871   -1.7048019150    5.5199162813
H        2.4752648484   -1.1192416439    6.5921910050
H        4.5153611440   -2.3548473434    2.4872302707
22   
torsion grid (75,)
C        1.9697992850   -1.1852730659   -0.0361101085
C        0.8146714428   -0.6008292567    0.4851932669
C        2.9916597431   -1.5974945975    0.8154529208
C        1.6975924264   -0.8168696586    2.7386187032
C        0.6529919588   -0.4189783825    1.8646609502
C        2.8567353882   -1.4095362642    2.1947527547
C        1.5485038843   -0.5915047286    4.2105996857
C       -0.6250500800    0.2188546631    2.3591949207
C        3.2883946700   -0.9202377205    5.8299412647
O        0.4760255109   -0.6417884045    4.7808229417
O        3.8373555746   -1.8447778306    3.0498809485
O        2.6612442437   -0.0861969132    4.8371400750
H        2.0747835034   -1.3236303105   -1.1089784444
H        0.0244561748   -0.2791968701   -0.1871368861
H        3.8899378525   -2.0660911654    0.4165401445
H       -1.2489382653   -0.5094476831    2.8833519208
H       -0.4322073095    1.0266616539    3.0698640975
H       -1.1898383763    0.6243753333    1.5158304688
H        4.0382210094   -0.2948174357    6.3164247650
H        3.7691556754   -1.7754113188    5.3517954400
H        2.5532709397   -1.2519690964    6.5710390783
H        4.5546089139   -2.2345824820    2.5251907292
22   
torsion grid (90,)
C        2.1760906169   -0.9435581290    0.0264633997
C        1.1407226918   -0.2480550257    0.6558984728
C        3.0035920585   -1.7913281662    0.7614603510
C        1.7409145592   -1.2529740958    2.7735407322
C        0.9163037382   -0.3819003410    2.0319979741
C        2.7804935786   -1.9515487786    2.1341540267
C        1.5186041534   -1.4745690735    4.2397648909
C       -0.2135996838    0.3791668196    2.6875736323
C        2.8350091570    0.0264427515    5.4975780952
O        1.3207942198   -2.5494171084    4.7507091732
O        3.5828436216   -2.7493467079    2.9077905253
O        1.5307189148   -0.3074159392    4.9893359538
H        2.3415106629   -0.8246715793   -1.0411177296
H        0.4967383295    0.4046383900    0.0730256684
H        3.8174212846   -2.3271850803    0.2760223768
H       -0.8376687855   -0.2758045161    3.3036997939
H        0.1720995366    1.1606189301    3.3479712361
H       -0.8521238831    0.8437862373    1.9322748681
H        2.7137671970    0.9481386826    6.0678337111
H        3.5417542741    0.1929198253    4.6752734354
H        3.2059254629   -0.7697321454    6.1513171899
H        4.2413861709   -3.1793724669    2.3398318810
22   
torsion grid (105,)
C        2.2375558350   -0.9086499733    0.1099475722
C        1.1909626237   -0.2182794015    0.7262887142
C        3.0340669968   -1.7867252805    0.8440379935
C        1.7152333286   -1.2906814543    2.8310658616
C        0.9236085469   -0.3897243643    2.0907117148
C        2.7671355330   -1.9810054357    2.2043947703
C        1.4409529974   -1.5483433785    4.2847758146
C       -0.2154882721    0.3664799841    2.7364240577
C        2.8248666282    0.0458217648    5.3554131443
O        1.1836665772   -2.6304804967    4.7520494488
O        3.5368404718   -2.8061992669    2.9821860331
O        1.4917853472   -0.4183759011    5.0807959578
H        2.4366447778   -0.7618506167   -0.9483393713
H        0.5724676850    0.4583736434    0.1430638143
H        3.8564858011   -2.3180342273    0.3681302722
H       -0.8560021823   -0.2952435846    3.3276339519
H        0.1592480787    1.1353463338    3.4181544978
H       -0.8351708362    0.8488797407    1.9765811819
H        2.7154424336    0.9668861856    5.9290534006
H        3.3707767012    0.2537223315    4.4270705851
H        3.3692218487   -0.6981680911    5.9463249758
H        4.2107037297   -3.2273934026    2.4256766844
22   
torsion grid (120,)
C        2.3021409785   -0.9171482072    0.1804571399
C        1.2370080015   -0.2259555287    0.7634242946
C        3.0687059046   -1.8029729729    0.9377975364
C        1.6794272265   -1.3166387913    2.8757946933
C        0.9187284076   -0.4082511350    2.1157022007
C        2.7521163088   -2.0029201711    2.2863558456
C        1.3375319224   -1.5870067137    4.3154493222
C       -0.2346530279    0.3467766865    2.7364808838
C        2.8213066136    0.0214680331    5.2605363552
O        0.9375344694   -2.6477127591    4.7289573729
O        3.4884790281   -2.8315453212    3.0942944040
O        1.4883126965   -0.5109766139    5.1616822393
H        2.5399916346   -0.7644477145   -0.8689167870
H        0.6438054701    0.4587788333    0.1635350583
H        3.9062813087   -2.3339756768    0.4888594524
H       -0.8973864958   -0.3205621584    3.2961879354
H        0.1235299558    1.1031029954    3.4418516430
H       -0.8275277016    0.8472726369    1.9671331479
H        2.7509560703    0.8917045627    5.9138661751
H        3.2053490566    0.3264848426    4.2804551523
H        3.4896844378   -0.7231784562    5.7039642792
H        4.1704177006   -3.2711648557    2.5624120221
22   
torsion grid (135,)
C        2.3416959185   -0.9246568150    0.2739163762
C        1.2369867408   -0.2545696102    0.8055434975
C        3.1177071816   -1.7609074456    1.0781927499
C        1.6588320461   -1.2650998608    2.9590474581
C        0.8844144111   -0.4133067857    2.1527044411
C        2.7699072272   -1.9275709082    2.4227230994
C        1.2726337921   -1.5060746425    4.3964466435
C       -0.3205599055    0.2932518597    2.7290793034
C        2.9792123534   -0.0286225309    5.2147980062
O        0.6521972321   -2.4741675431    4.7665437727
O        3.5039970963   -2.7076386534    3.2843329499
O        1.6302275461   -0.5290726053    5.2858903213
H        2.6052903540   -0.7929625090   -0.7720776015
H        0.6404068773    0.3948848487    0.1707018032
H        3.9852696638   -2.2751982706    0.6685455682
H       -1.0781547003   -0.4290240280    3.0521521336
H       -0.0511564315    0.8893652383    3.6067546190
H       -0.7769866466    0.9560717811    1.9901620537
H        3.0517519242    0.7346694012    5.9899187288
H        3.1923185817    0.4168188117    4.2374997139
H        3.6884088142   -0.8358331053    5.4157320277
H        4.2020425810   -3.1637827144    2.7883445243
22   
torsion grid (150,)
C        2.3781603493   -0.9526794226    0.3493525086
C        1.2692086320   -0.2758326207    0.8632964156
C        3.1422998421   -1.7851731466    1.1689028429
C        1.6673071834   -1.2667193434    3.0301329834
C        0.9001077061   -0.4245455467    2.2071690855
C        2.7803682891   -1.9379893483    2.5111237014
C        1.2547606410   -1.4922476180    4.4634741447
C       -0.3133618774    0.2823497412    2.7647102664
C        3.0205615020   -0.0125961311    5.1797949033
O        0.5081142013   -2.3806768914    4.8035968560
O        3.4989959600   -2.7184473363    3.3868412211
O        1.7229266124   -0.6046576506    5.3858539062
H        2.6538914289   -0.8299185353   -0.6945824681
H        0.6815418746    0.3702838382    0.2168327486
H        4.0113297268   -2.3073108338    0.7725565068
H       -1.0847359467   -0.4406290352    3.0507358957
H       -0.0653368583    0.8574201654    3.6630370908
H       -0.7420864006    0.9663458885    2.0285224708
H        3.1916182612    0.6204706878    6.0508283134
H        3.0442390303    0.5965926737    4.2708885239
H        3.7863505925   -0.7898122312    5.1260284226
H        4.1906449606   -3.1941767998    2.9002608729
22   
torsion grid (165,)
C        2.3802342863   -0.9295566905    0.3421698452
C        1.2594420658   -0.2678767201    0.8503876333
C        3.1457060309   -1.7597631581    1.1624584173
C        1.6517955835   -1.2642540258    3.0156960735
C        0.8783459253   -0.4306748810    2.1890432281
C        2.7750703044   -1.9218799623    2.5011178767
C        1.2202702528   -1.5062812123    4.4406376718
C       -0.3482646029    0.2592276144    2.7386957787
C        3.0267996415   -0.0533203457    5.1436542791
O        0.3547153897   -2.3005775871    4.7340592407
O        3.4894927690   -2.7086876245    3.3753275425
O        1.7965951642   -0.7526980951    5.4135717183
H        2.6628807837   -0.7981694103   -0.6988383219
H        0.6707347462    0.3758489010    0.2025503191
H        4.0208456578   -2.2742403846    0.7695195495
H       -1.1063411963   -0.4748455948    3.0298400685
H       -0.1125285674    0.8458019226    3.6334776553
H       -0.7853788491    0.9317246626    1.9968752598
H        3.2390167532    0.5159823880    6.0490988695
H        2.9219837955    0.6297245056    4.2957429672
H        3.8329819771   -0.7647886279    4.9524836986
H        4.1877426928   -3.1762091165    2.8901784387
22   
torsion grid (180,)
C        2.1262760728   -0.4931710887    0.2563483461
C        0.9463812921   -0.1390248148    0.9153249554
C        3.0826595634   -1.2844541878    0.8941587395
C        1.6648236450   -1.3668820087    2.8695495332
C        0.6968923785   -0.5774326569    2.2227379171
C        2.8458773914   -1.7168880467    2.2027241889
C        1.3866175641   -1.9052684925    4.2498737423
C       -0.5937003378   -0.2222724619    2.9234736508
C        3.0028955661   -0.3001344538    5.0834129566
O        0.5761452064   -2.7835739513    4.4520434055
O        3.7482964955   -2.4887749256    2.8974001348
O        2.0363069129   -1.3448435893    5.3010537653
H        2.3050632637   -0.1515263881   -0.7596235276
H        0.2084716883    0.4778821770    0.4098164817
H        4.0026618867   -1.5628904276    0.3832345133
H       -1.2066279223   -1.1157680233    3.0766826990
H       -0.4112768046    0.2097838795    3.9134150309
H       -1.1695054977    0.4990705164    2.3387440405
H        3.2400445826    0.0829060657    6.0765988982
H        2.5903531796    0.5042496859    4.4683439915
H        3.9037344527   -0.7043333400    4.6167437442
H        4.4792640666   -2.7354034899    2.3089264226
