9    
torsion grid (-165,)
C       -0.2460378546    0.6678095466   -2.0163922873
C       -1.9893499274   -1.1965412946    0.2121689541
N       -0.5837575842    0.2323599433   -0.8682379526
O       -1.3650413980   -0.9484990656   -0.9988228035
F       -2.3232762082   -2.5080444275    0.2111875703
F       -3.1469926219   -0.4770016918    0.3130568537
H        0.3804730329    1.5557528456   -2.0234002710
H       -0.5492172249    0.1949483322   -2.9513263535
H       -1.3536610322   -0.9575426556    1.0663305860
9    
torsion grid (-150,)
C       -0.2791570814    0.6713021932   -1.9950401642
C       -1.9721595933   -1.1950605964    0.1975265939
N       -0.4596167531    0.1495140283   -0.8475351191
O       -1.2431535025   -1.0386448759   -0.9670208730
F       -2.3587733006   -2.4907984822    0.2406422224
F       -3.1051635128   -0.4279318202    0.1615218445
H        0.3435455122    1.5620410473   -2.0209909378
H       -0.7018291604    0.2619593659   -2.9132965795
H       -1.4005534267   -0.9291393276    1.0887573090
9    
torsion grid (-135,)
C       -0.3169880069    0.6668718209   -1.9612960108
C       -1.9508931307   -1.1874218215    0.1731589099
N       -0.3344547927    0.0655294347   -0.8390408692
O       -1.1321877082   -1.1255397468   -0.9365047418
F       -2.3896704449   -2.4639378517    0.2624086887
F       -3.0497258412   -0.3841733213    0.0052350238
H        0.3017657168    1.5598925700   -2.0120248726
H       -0.8633312798    0.3175544210   -2.8380837966
H       -1.4413753309   -0.8855339728    1.0907119649
9    
torsion grid (-120,)
C       -0.3577182161    0.6559459866   -1.9160630520
C       -1.9255203660   -1.1752165829    0.1403860137
N       -0.2150128761   -0.0143498811   -0.8429253737
O       -1.0272596128   -1.2096791503   -0.9040545478
F       -2.4177931506   -2.4276775568    0.2735763018
F       -2.9809196929   -0.3468143719   -0.1574131150
H        0.2481323934    1.5561629161   -1.9982114183
H       -1.0227176184    0.3572640886   -2.7270642043
H       -1.4780516790   -0.8323939157    1.0763336919
9    
torsion grid (-105,)
C       -0.3971067962    0.6395721840   -1.8644887594
C       -1.9002709546   -1.1582480045    0.1022373031
N       -0.1030561514   -0.0982524722   -0.8690993273
O       -0.9402205245   -1.2876461425   -0.8747081296
F       -2.4360113921   -2.3853274455    0.2878774524
F       -2.9147222612   -0.3249966819   -0.3164469591
H        0.2019275517    1.5414416961   -1.9782431388
H       -1.1793332320    0.3984426744   -2.5847955620
H       -1.5080670582   -0.7617442753    1.0422314170
9    
torsion grid (-90,)
C       -0.4295761929    0.6261475613   -1.8097554714
C       -1.8809102083   -1.1415111387    0.0613825297
N       -0.0085527981   -0.1845831457   -0.9218111812
O       -0.8734865254   -1.3565435604   -0.8488970908
F       -2.4339996895   -2.3469021583    0.3209341509
F       -2.8728562918   -0.3415030562   -0.4704353561
H        0.1779317727    1.5182706509   -1.9540236575
H       -1.3181948973    0.4588258694   -2.4182822066
H       -1.5372159879   -0.6689594898    0.9854525791
9    
torsion grid (-75,)
C       -0.4412501714    0.6212607665   -1.7553205235
C       -1.8759551636   -1.1280599235    0.0181729401
N        0.0588012119   -0.2879811390   -1.0149085545
O       -0.8458814753   -1.4169266172   -0.8433787353
F       -2.3921300409   -2.3106804716    0.4188898570
F       -2.8944890164   -0.4371393711   -0.6144161163
H        0.2087511482    1.4766256960   -1.9335777588
H       -1.4291213666    0.5790363694   -2.2123352045
H       -1.5655859444   -0.5328937769    0.8814383922
9    
torsion grid (-60,)
C       -0.4364870280    0.6275532733   -1.6880524357
C       -1.8841583859   -1.1211962318   -0.0346367937
N        0.0912023903   -0.3875700184   -1.1232249139
O       -0.8383715477   -1.4633751998   -0.8583539999
F       -2.3201753569   -2.2611343778    0.5438492604
F       -2.9511308275   -0.6030405146   -0.7476623409
H        0.2577124630    1.4357856681   -1.9116145939
H       -1.4863960867    0.7224562891   -1.9629777836
H       -1.6090564390   -0.3862373555    0.7272378974
9    
torsion grid (-45,)
C       -0.4372666500    0.6255935999   -1.6380519243
C       -1.8892283355   -1.1116664462   -0.0715277531
N        0.0940748547   -0.4605658319   -1.2271927280
O       -0.8202991476   -1.4968924090   -0.8493407119
F       -2.2808136146   -2.1989180722    0.6262380555
F       -2.9676124351   -0.7210583700   -0.8411182768
H        0.2765867393    1.3925943630   -1.9316058467
H       -1.5049157803    0.8227429799   -1.7307661332
H       -1.6473864495   -0.2885882810    0.6079296149
9    
torsion grid (-30,)
C       -0.4407666489    0.6270372063   -1.6049946760
C       -1.8922541206   -1.1079114864   -0.0920834798
N        0.0817858271   -0.5005459094   -1.3074861902
O       -0.7818241730   -1.5112858071   -0.8049407690
F       -2.2786016177   -2.1654262053    0.6512593460
F       -2.9441062819   -0.7886439378   -0.9224331863
H        0.2681475918    1.3590143805   -1.9857028741
H       -1.4944673500    0.8955249750   -1.5406817300
H       -1.6947740453   -0.2445216831    0.5516278557
9    
torsion grid (-15,)
C       -0.4395974320    0.6307654741   -1.5873106174
C       -1.8971654988   -1.1070006333   -0.1001418112
N        0.0584979561   -0.5271435298   -1.3754601203
O       -0.7405781014   -1.5071472922   -0.7435660019
F       -2.2900222400   -2.1547725674    0.6523806705
F       -2.9057062486   -0.8345666983   -0.9924823653
H        0.2466032086    1.3255963971   -2.0660530636
H       -1.4548124772    0.9631081243   -1.3766198738
H       -1.7540799853   -0.2255977419    0.5338174793
9    
torsion grid (0,)
C       -0.1433136903    0.5039773781   -1.3639934575
C       -2.0392329910   -1.1069789454   -0.2625286052
N       -1.3500377877    0.9244785388   -1.3706590483
O       -2.3667677502    0.1227494072   -0.8104114118
F       -1.6402510559   -1.9953263579   -1.2269158330
F       -3.1755832111   -1.5748007519    0.2923279399
H        0.5691394953    1.2027458261   -1.7961868475
H        0.2249283723   -0.4601632805   -1.0175809243
H       -1.2557421999   -1.0534402821    0.5005124841
9    
torsion grid (15,)
C       -0.1479979844    0.4956115708   -1.3737330219
C       -2.0386475746   -1.0981481697   -0.2596781407
N       -1.3400574065    0.9519373578   -1.3067528738
O       -2.3764034493    0.0899623894   -0.8810459824
F       -1.6043656438   -2.0375617767   -1.1633136175
F       -3.1730398335   -1.5646566705    0.3006622675
H        0.5874306040    1.2282322643   -1.6981812996
H        0.1822606980   -0.5237525437   -1.1805152835
H       -1.2660402283   -0.9783828892    0.5071222482
9    
torsion grid (30,)
C       -0.1490700291    0.4956911515   -1.3918948396
C       -2.0408834526   -1.0938393919   -0.2515503506
N       -1.3246890528    0.9711833672   -1.2342370634
O       -2.3701057468    0.0528569136   -0.9448319231
F       -1.5681038375   -2.0795865696   -1.0897521880
F       -3.1837198182   -1.5534760026    0.2987303651
H        0.6081284692    1.2448930064   -1.6124457347
H        0.1408558556   -0.5536342547   -1.3550537999
H       -1.2892732064   -0.9208466874    0.5255998304
9    
torsion grid (45,)
C       -0.1458304208    0.5013142819   -1.4245667761
C       -2.0478135441   -1.0922679879   -0.2316573252
N       -1.2976579134    0.9787227643   -1.1483885383
O       -2.3480200962    0.0178570544   -0.9890698312
F       -1.5125055200   -2.1067233263   -1.0009176560
F       -3.2129780160   -1.5548574145    0.2692422203
H        0.6330932724    1.2501990042   -1.5529808553
H        0.0973174046   -0.5529294212   -1.5542637374
H       -1.3424659848   -0.8780734226    0.5771667953
9    
torsion grid (60,)
C       -0.1393710697    0.5050696169   -1.4786873636
C       -2.0603703052   -1.0893058452   -0.1923476548
N       -1.2444187864    0.9694234797   -1.0414289771
O       -2.3141852982   -0.0027278102   -0.9949707706
F       -1.4059247652   -2.0952266602   -0.8816541702
F       -3.2569754701   -1.5905152115    0.1833271386
H        0.6678149876    1.2331212826   -1.5379842564
H        0.0321171640   -0.5226317852   -1.7970034397
H       -1.4555472754   -0.8439655343    0.6853137901
9    
torsion grid (75,)
C       -0.1324854364    0.5051142382   -1.5411328838
C       -2.0776349605   -1.0854819344   -0.1446408239
N       -1.1571291227    0.9332320340   -0.9151935140
O       -2.2690254156   -0.0063292740   -0.9726372034
F       -1.2678723420   -2.0429767029   -0.7298058122
F       -3.2891582018   -1.6542547080    0.0406040644
H        0.7182266093    1.1849484208   -1.5475089951
H       -0.0744327194   -0.4502473498   -2.0611808441
H       -1.6273492293   -0.8207631913    0.8160603083
9    
torsion grid (90,)
C       -0.1236704978    0.5199993335   -1.5994420606
C       -2.0944492481   -1.0923781697   -0.0998128393
N       -1.0702274005    0.8628755394   -0.8188080788
O       -2.2089550960   -0.0358858349   -0.9714288068
F       -1.1897238218   -2.0277356726   -0.5632865033
F       -3.3042869406   -1.6927069588   -0.0559269943
H        0.7581725974    1.1583493806   -1.5742068652
H       -0.1679657166   -0.3337074655   -2.2755472747
H       -1.7757546945   -0.7955686194    0.9030237192
9    
torsion grid (105,)
C       -0.1054724388    0.5552791987   -1.6527970325
C       -2.1145238355   -1.1143517215   -0.0603912274
N       -0.9913501704    0.7676521160   -0.7629828554
O       -2.1352102304   -0.1013085997   -0.9910758950
F       -1.1919146592   -2.0775387333   -0.4065017799
F       -3.3348113910   -1.6951345696   -0.0885387547
H        0.7803979287    1.1856887185   -1.5983290517
H       -0.2093867532   -0.1887494041   -2.4430427949
H       -1.8745892687   -0.7682954724    0.9482236878
9    
torsion grid (120,)
C       -0.0835037619    0.5982465185   -1.6994039535
C       -2.1357300206   -1.1423496862   -0.0264039602
N       -0.9087091762    0.6570186751   -0.7314844653
O       -2.0506398725   -0.1847810829   -1.0136878278
F       -1.2334061132   -2.1534332450   -0.2551840154
F       -3.3747155726   -1.6781022504   -0.1077374101
H        0.7955054747    1.2340191924   -1.6137929174
H       -0.2347951169   -0.0257019920   -2.5808571929
H       -1.9508666594   -0.7416745969    0.9731160388
9    
torsion grid (135,)
C       -0.0668593398    0.6414198793   -1.7395215176
C       -2.1523041081   -1.1696057939    0.0023826477
N       -0.8229850124    0.5383377386   -0.7201951810
O       -1.9592983823   -0.2817990399   -1.0369486527
F       -1.2915733444   -2.2316729058   -0.1061402010
F       -3.4103078180   -1.6501157457   -0.1255792290
H        0.8026402269    1.2845074168   -1.6239673259
H       -0.2672164532    0.1418483921   -2.6879736093
H       -2.0089565872   -0.7096784091    0.9825073650
9    
torsion grid (150,)
C       -0.0586320310    0.6815833895   -1.7698432590
C       -2.1626883671   -1.1929046173    0.0237473669
N       -0.7353668689    0.4169077713   -0.7241058736
O       -1.8644923949   -0.3899088354   -1.0617713220
F       -1.3583309999   -2.3003205914    0.0372400037
F       -3.4362052207   -1.6165394040   -0.1466903010
H        0.8029650456    1.3292306519   -1.6283364711
H       -0.3140691590    0.3052230870   -2.7610558913
H       -2.0500408226   -0.6700299191    0.9753800436
9    
torsion grid (165,)
C       -0.0598702946    0.7158698391   -1.7889725921
C       -2.1659735510   -1.2108441501    0.0365836706
N       -0.6451163537    0.2959831120   -0.7386998999
O       -1.7668547316   -0.5059269656   -1.0865428888
F       -1.4279903248   -2.3529306819    0.1755324919
F       -3.4506279808   -1.5790262598   -0.1770140235
H        0.7974088707    1.3643427739   -1.6290968057
H       -0.3811919202    0.4593456115   -2.7991988192
H       -2.0766445324   -0.6235717466    0.9519731630
9    
torsion grid (180,)
C       -0.0704337420    0.7429747497   -1.7948650311
C       -2.1620442070   -1.2225138635    0.0390117441
N       -0.5517743444    0.1803866653   -0.7585972090
O       -1.6661613282   -0.6282560202   -1.1102948731
F       -1.5011964687   -2.3882832957    0.3035746622
F       -3.4537519550   -1.5366369050   -0.2175611668
H        0.7838772587    1.3936331025   -1.6288369266
H       -0.4679748426    0.5941623797   -2.7996531075
H       -2.0874011892   -0.5722252803    0.9117862041
