
  -OEChem-12102412483D

 15 14  0     0  0  0  0  0  0999 V2000
    0.4752    1.4328    1.1868 C   0  0  0  0  0  0  0  0  0  0  0  0
   -0.4756    0.6803    0.6284 C   0  0  0  0  0  0  0  0  0  0  0  0
   -0.8986   -0.6062    1.2590 C   0  0  0  0  0  0  0  0  0  0  0  0
   -0.3954   -1.1012    2.2432 O   0  0  0  0  0  0  0  0  0  0  0  0
    0.0736   -0.6564   -1.9684 O   0  0  0  0  0  0  0  0  0  0  0  0
   -1.9543   -1.1912    0.6070 O   0  0  0  0  0  0  0  0  0  0  0  0
   -1.1057    1.4373   -3.0106 O   0  0  0  0  0  0  0  0  0  0  0  0
   -2.5592   -0.2860   -2.0817 O   0  0  0  0  0  0  0  0  0  0  0  0
   -1.1598    1.1044   -0.4998 O   0  0  0  0  0  0  0  0  0  0  0  0
   -1.0719    0.2723   -1.9113 P   0  0  0  0  0  0  0  0  0  0  0  0
    0.7752    2.3712    0.7329 H   0  0  0  0  0  0  0  0  0  0  0  0
    0.9435    1.1068    2.1080 H   0  0  0  0  0  0  0  0  0  0  0  0
   -2.1158   -2.0369    1.0687 H   0  0  0  0  0  0  0  0  0  0  0  0
   -0.2443    1.5171   -3.4548 H   0  0  0  0  0  0  0  0  0  0  0  0
   -2.8202   -0.7788   -1.2800 H   0  0  0  0  0  0  0  0  0  0  0  0
  1  2  2  0  0  0  0
  1 11  1  0  0  0  0
  1 12  1  0  0  0  0
  2  3  1  0  0  0  0
  2  9  1  0  0  0  0
  3  4  2  0  0  0  0
  3  6  1  0  0  0  0
  5 10  2  0  0  0  0
  6 13  1  0  0  0  0
  7 10  1  0  0  0  0
  7 14  1  0  0  0  0
  8 10  1  0  0  0  0
  8 15  1  0  0  0  0
  9 10  1  0  0  0  0
M  END
$$$$
