
  -OEChem-12102412483D

 15 14  0     0  0  0  0  0  0999 V2000
    0.2598    1.4468    0.5081 C   0  0  0  0  0  0  0  0  0  0  0  0
    0.0396    0.4199   -0.3201 C   0  0  0  0  0  0  0  0  0  0  0  0
    0.8513   -0.8463   -0.3281 C   0  0  0  0  0  0  0  0  0  0  0  0
    1.0681   -1.4707   -1.3521 O   0  0  0  0  0  0  0  0  0  0  0  0
    0.1722    2.3345   -2.7514 O   0  0  0  0  0  0  0  0  0  0  0  0
    1.3649   -1.2671    0.8438 O   0  0  0  0  0  0  0  0  0  0  0  0
   -2.0332    1.1311   -3.4530 O   0  0  0  0  0  0  0  0  0  0  0  0
    0.0571   -0.1842   -3.5656 O   0  0  0  0  0  0  0  0  0  0  0  0
   -0.9222    0.4587   -1.3053 O   0  0  0  0  0  0  0  0  0  0  0  0
   -0.5687    1.0593   -2.8074 P   0  0  0  0  0  0  0  0  0  0  0  0
   -0.2967    2.3707    0.3957 H   0  0  0  0  0  0  0  0  0  0  0  0
    1.0282    1.4093    1.2739 H   0  0  0  0  0  0  0  0  0  0  0  0
    0.9813   -0.7576    1.5785 H   0  0  0  0  0  0  0  0  0  0  0  0
   -2.3438    2.0511   -3.5050 H   0  0  0  0  0  0  0  0  0  0  0  0
    0.4981   -0.8150   -2.9430 H   0  0  0  0  0  0  0  0  0  0  0  0
  1  2  2  0  0  0  0
  1 11  1  0  0  0  0
  1 12  1  0  0  0  0
  2  3  1  0  0  0  0
  2  9  1  0  0  0  0
  3  4  2  0  0  0  0
  3  6  1  0  0  0  0
  5 10  2  0  0  0  0
  6 13  1  0  0  0  0
  7 10  1  0  0  0  0
  7 14  1  0  0  0  0
  8 10  1  0  0  0  0
  8 15  1  0  0  0  0
  9 10  1  0  0  0  0
M  END
$$$$
