15
0 1 C3H5O6P
C                     0.475190398176     1.432755934061     1.186761594597
C                    -0.475615872529     0.680341866835     0.628419581019
C                    -0.898580861599    -0.606198440381     1.259029955689
O                    -0.395369011379    -1.101173700234     2.243232594868
O                     0.073627161167    -0.656401598776    -1.968414004489
O                    -1.954287645309    -1.191193903537     0.607027370023
O                    -1.105657958501     1.437297105337    -3.010571438558
O                    -2.559162026100    -0.285956564139    -2.081749480522
O                    -1.159787188458     1.104391383431    -0.499801292513
P                    -1.071858785627     0.272332013125    -1.911333309807
H                     0.775242211167     2.371185448322     0.732909341381
H                     0.943458174167     1.106796731983     2.107987891121
H                    -2.115837621196    -2.036911014853     1.068704577236
H                    -0.244345597904     1.517131647479    -3.454778352296
H                    -2.820171541370    -0.778795159877    -1.279980361924
