15
0 1 C3H5O6P
C                     0.259768356582     1.446750956749     0.508067702015
C                     0.039569448182     0.419947652366    -0.320105417315
C                     0.851326135744    -0.846269392403    -0.328078726143
O                     1.068143998650    -1.470650568122    -1.352094467859
O                     0.172179479141     2.334451093505    -2.751430807859
O                     1.364936995500    -1.267124546643     0.843842347586
O                    -2.033177749008     1.131144863377    -3.452987987039
O                     0.057140020739    -0.184205777393    -3.565598416208
O                    -0.922234220357     0.458657362209    -1.305342582065
P                    -0.568676876254     1.059311459493    -2.807381492233
H                    -0.296730104138     2.370689672777     0.395670404260
H                     1.028175201594     1.409256163697     1.273882748177
H                     0.981331683474    -0.757628976343     1.578545917217
H                    -2.343804882799     2.051139711613    -3.504996539324
H                     0.498106491369    -0.815034580541    -2.943031519265
