28   
torsion grid (-165,)
C       -2.7426717404    0.0138279030    2.4105648778
N       -1.2432634780    0.2185247074    2.5149933160
C       -0.9365215990    1.6300059759    2.1077575139
C       -0.5322269206   -0.7259110438    1.5745236384
C       -0.7496251864    0.0451327208    3.9529831834
C       -0.6586016252   -1.3790882471    4.5052640407
O       -1.9005447504   -2.0291482312    4.5711394502
P       -2.2219450928   -3.3285264033    3.4990986813
O       -2.6071849521   -4.4895623642    4.5676969291
C       -1.5532345842   -5.0452108913    5.3615314193
O       -3.4559270248   -2.9300080242    2.7530454887
O       -0.9079323598   -3.6069337022    2.8110477855
H       -3.0174372207   -1.0274365881    2.6059599590
H       -3.2225791526    0.6794391461    3.1295847315
H       -3.0362009067    0.2876399510    1.3953800679
H        0.1426041479    1.7873393786    2.1289557792
H       -1.3138050611    1.7967114752    1.0983445968
H       -1.4260845612    2.3156689652    2.8007276540
H        0.5402699902   -0.5323933431    1.6426612914
H       -0.7417272756   -1.7665663325    1.8417880614
H       -0.8841269414   -0.5155969941    0.5634112454
H        0.2586714956    0.4703074052    3.9761759038
H       -1.4132215868    0.6574492950    4.5673820684
H        0.0668546075   -1.9725680045    3.9403012183
H       -0.2644623774   -1.2500996999    5.5243370192
H       -1.9861792961   -5.8778250785    5.9207589170
H       -1.1688273327   -4.2987427486    6.0682136314
H       -0.7363595469   -5.4041232319    4.7282554170
28   
torsion grid (-150,)
C       -2.6784638182   -0.4085826586    2.4092645239
N       -1.2183329091   -0.0181009397    2.5294143692
C       -1.0994924191    1.4252515061    2.1298780854
C       -0.3719501424   -0.8427123169    1.5903565151
C       -0.7466085232   -0.1221690243    3.9882142845
C       -0.2736722234   -1.4844268160    4.4900493962
O       -1.3334326748   -2.4003732266    4.6029734952
P       -1.4625959190   -3.6769646997    3.4704111492
O       -1.7229744541   -4.9119283291    4.4908256836
C       -0.6244803114   -5.3570510931    5.2950964655
O       -2.7207932802   -3.4146900317    2.7010279238
O       -0.1122098817   -3.7567880827    2.8040651816
H       -2.8086859455   -1.4682979302    2.6606695564
H       -3.2526437925    0.2366752473    3.0754813258
H       -2.9796765474   -0.2408470177    1.3735783664
H       -0.0487194579    1.7177489588    2.1368539010
H       -1.5105052596    1.5502769291    1.1275618421
H       -1.6613076236    2.0383073659    2.8361051421
H        0.6640508881   -0.5125294178    1.6868439771
H       -0.4411142225   -1.9066401151    1.8284761228
H       -0.7281169704   -0.6567759992    0.5759674557
H        0.0378217687    0.6298319300    4.1114883925
H       -1.6018529586    0.1987853355    4.5871523748
H        0.5399347828   -1.8905302354    3.8807651788
H        0.1284947889   -1.2841431804    5.4936351009
H       -0.9637227056   -6.2517587430    5.8222008111
H       -0.3487151611   -4.5885233460    6.0278183345
H        0.2422539949   -5.5955957479    4.6715066547
28   
torsion grid (-135,)
C       -2.7523720922    0.1857627556    2.2403722015
N       -1.2553372355    0.2122556949    2.4724487561
C       -0.7538410930    1.5606462654    2.0374576509
C       -0.5744210225   -0.8336836649    1.6237504573
C       -0.9464184063    0.0741205007    3.9831922544
C       -0.5532981593   -1.2932149124    4.5553875871
O       -1.6635369599   -2.0946323265    4.8700041413
P       -2.2227212011   -3.2122335104    3.7133883182
O       -2.7119017228   -4.3844184804    4.7200576603
C       -1.7047113625   -5.1541796073    5.3900019256
O       -3.4279510772   -2.5995892561    3.0633757824
O       -1.0067249601   -3.6058953769    2.9119166321
H       -3.1524127451   -0.7815859358    2.5767612600
H       -3.1913946020    1.0175982193    2.7931512245
H       -2.9265436941    0.3145063320    1.1704332839
H        0.3320670099    1.5913584493    2.1364209259
H       -1.0339161359    1.7234667992    0.9960376372
H       -1.2071816816    2.3305194603    2.6634873478
H        0.5027168642   -0.7531253540    1.7796208677
H       -0.9076396053   -1.8403352173    1.8916509470
H       -0.8124637784   -0.6137152221    0.5816885519
H       -0.1838050074    0.8250739308    4.1996917185
H       -1.8566562353    0.3940475399    4.4934533668
H        0.1595577109   -1.8282998679    3.9196105796
H       -0.0450926364   -1.0558078568    5.4989991205
H       -2.2251219241   -5.9526714988    5.9237640550
H       -1.1605193855   -4.5303236952    6.1089149089
H       -1.0006963311   -5.5812495806    4.6698295240
28   
torsion grid (-120,)
C       -2.7566242714    0.5136334238    2.0492435910
N       -1.2879249327    0.5669589053    2.4160006978
C       -0.7078592485    1.8299488779    1.8497336455
C       -0.5835327677   -0.6011411721    1.7677804010
C       -1.1390153560    0.6214812891    3.9682832286
C       -0.4361964799   -0.5411906075    4.7123770022
O       -1.3267537933   -1.3720375713    5.4180341097
P       -2.3784909020   -2.3123889125    4.4825392193
O       -2.8253834315   -3.3726047687    5.6195293098
C       -1.8745673018   -4.3707394017    6.0204777159
O       -3.5493375514   -1.4401106334    4.1260202880
O       -1.5280672048   -2.9411763646    3.4043632282
H       -3.2071518780   -0.3565213326    2.5394190953
H       -3.2294008324    1.4260911384    2.4164995921
H       -2.8315246892    0.4646375223    0.9615139860
H        0.3556518378    1.8750265315    2.0890144924
H       -0.8422946299    1.8285845925    0.7670949393
H       -1.2232672939    2.6885399012    2.2819655719
H        0.4878170728   -0.5100394246    1.9517083847
H       -0.9664875356   -1.5448995607    2.1776761430
H       -0.7715225563   -0.5352698913    0.6945280531
H       -0.6138474094    1.5562793905    4.1643780524
H       -2.1505118472    0.6969158936    4.3659953071
H        0.2076496899   -1.1293004169    4.0510743035
H        0.2044077310   -0.0747481140    5.4673204199
H       -2.4053062055   -5.0574019000    6.6836859260
H       -1.0415900677   -3.9090187994    6.5623683673
H       -1.4911444783   -4.9100741676    5.1497038384
28   
torsion grid (-105,)
C       -2.8689446811    0.3696972754    2.2821309353
N       -1.3957400138    0.3232897664    2.6207539490
C       -0.7563184932    1.6152730368    2.2068240179
C       -0.7566858782   -0.7842088879    1.8132323439
C       -1.2565334467    0.1756653575    4.1651519354
C       -0.3228553092   -0.9189945690    4.7365481441
O       -1.0449357450   -1.9653692147    5.3464492365
P       -1.9504994443   -2.9423582662    4.2990687345
O       -2.4303793457   -4.0500617498    5.3754079932
C       -1.4668090567   -5.0182025185    5.8201148511
O       -3.1368011046   -2.1220875590    3.8629661300
O       -0.9872452116   -3.4885403821    3.2782538536
H       -3.3002347441   -0.5877986527    2.5890266208
H       -3.3213273073    1.1921941052    2.8390413850
H       -2.9697446191    0.5457509914    1.2095181916
H        0.2938340507    1.6032193112    2.5025616134
H       -0.8320613987    1.7209375484    1.1235604749
H       -1.2694131132    2.4453585937    2.6938907611
H        0.3261533879   -0.7138671177    1.9141564210
H       -1.0922376373   -1.7667687221    2.1532303978
H       -1.0332148108   -0.6193780004    0.7704258186
H       -0.9500848265    1.1635116918    4.5110200457
H       -2.2549899896   -0.0439725215    4.5372101901
H        0.3766556353   -1.3087644632    3.9890248540
H        0.2698152337   -0.4531219712    5.5293685639
H       -2.0159147505   -5.7538962165    6.4119788995
H       -0.7053795647   -4.5391166138    6.4453561104
H       -0.9867195763   -5.5042503183    4.9662707181
28   
torsion grid (-90,)
C       -2.9064123523    0.5815294071    2.2218998954
N       -1.4663688225    0.3265595878    2.5865373677
C       -0.6192425403    1.5054849376    2.2154558530
C       -0.9982260649   -0.8603833031    1.7700303780
C       -1.4208812605    0.1531844696    4.1274418618
C       -0.4118079498   -0.8457778961    4.7387159629
O       -1.0732871862   -1.9468000171    5.3205496179
P       -1.8515842560   -2.9898263220    4.2307491593
O       -2.4181275686   -4.0564276299    5.3089402983
C       -1.4881285977   -4.9911300893    5.8791682544
O       -3.0106412146   -2.2127638827    3.6494514640
O       -0.7889944130   -3.5556511712    3.3327578043
H       -3.4601383804   -0.3251807048    2.4745206139
H       -3.2685514193    1.4331877339    2.8005742207
H       -2.9664347070    0.8027361095    1.1545720984
H        0.4032357922    1.3215056429    2.5489887557
H       -0.6340090566    1.6350221620    1.1324432595
H       -1.0105365550    2.4014275635    2.6990122788
H        0.0393853210   -1.0837050016    2.0035734744
H       -1.6201875982   -1.7205854004    2.0007708338
H       -1.0909762136   -0.5746193088    0.7204436505
H       -1.2572197631    1.1643291947    4.5052993963
H       -2.4095389815   -0.1927304117    4.4187336424
H        0.3472035623   -1.1747894339    4.0184801416
H        0.1115577681   -0.3337691088    5.5515755953
H       -2.0810343901   -5.7163500007    6.4410731811
H       -0.7984631796   -4.4771494517    6.5577575147
H       -0.9194047459   -5.4967167024    5.0939029332
28   
torsion grid (-75,)
C       -2.9921077666    0.7675285347    2.4948230150
N       -1.6482930584    0.2152208262    2.8796716848
C       -0.5673765917    1.2070898567    2.5829272578
C       -1.4213768391   -1.0232634815    2.0309076965
C       -1.6953611416   -0.0340440901    4.3994868065
C       -0.6182159639   -0.9677933826    5.0033686854
O       -1.1971099044   -2.1154622649    5.5779248807
P       -1.8869547899   -3.2016632942    4.4665953161
O       -2.2905389286   -4.3692195095    5.5132322679
C       -1.2398353271   -5.2049331750    6.0234542699
O       -3.1446504228   -2.5441476609    3.9503180523
O       -0.7826564714   -3.6034906632    3.5281843779
H       -3.7336854395   -0.0091513335    2.6817618264
H       -3.2046415819    1.6498147442    3.1011562467
H       -2.9783920379    1.0360504716    1.4371349613
H        0.3868024376    0.7913874373    2.9078770701
H       -0.5363346558    1.3969199584    1.5092265251
H       -0.7692761808    2.1359385217    3.1185930818
H       -0.4912078031   -1.5120025516    2.3086165353
H       -2.2382686571   -1.7187987412    2.2189031992
H       -1.3921426460   -0.6899487474    0.9913597490
H       -1.6188317926    0.9665429890    4.8322877331
H       -2.6680408540   -0.4763561243    4.6083649952
H        0.1516300321   -1.2399493440    4.2684916596
H       -0.1180186833   -0.4307104247    5.8146348145
H       -1.7253065426   -6.0152125479    6.5721717397
H       -0.5961094201   -4.6361109686    6.7035208793
H       -0.6384777279   -5.6111466059    5.2054434872
28   
torsion grid (-60,)
C       -2.6156911944    1.1046868911    2.0549437114
N       -1.8810600041   -0.0688792924    2.6377146380
C       -0.4042974817    0.0478150699    2.3598447757
C       -2.4419321137   -1.3070131438    1.9546608820
C       -2.1646782350   -0.0656634208    4.1385679591
C       -1.4523724146   -1.1198477218    4.9976789753
O       -1.7006132119   -2.4454665296    4.6145296488
P       -0.4267342407   -3.3543215750    3.9082638293
O       -0.2587395277   -4.5367498212    5.0110010145
C        0.3197253066   -4.1984384838    6.2753693868
O       -1.0052184316   -3.9350936467    2.6588711434
O        0.7624192808   -2.4228063879    3.9048437317
H       -3.6849763644    0.9718825692    2.2204721910
H       -2.2756375829    2.0231784038    2.5363296054
H       -2.4114739295    1.1536430065    0.9850013280
H        0.1240880667   -0.8091529570    2.7949967310
H       -0.2679010923    0.0651905853    1.2773733343
H       -0.0462268164    0.9833401171    2.7951410075
H       -1.8619045375   -2.2032842801    2.1844394837
H       -3.4698671988   -1.4415451222    2.2924736383
H       -2.4217170105   -1.1154087369    0.8802070010
H       -1.7845794861    0.8931359901    4.5059854836
H       -3.2496833854   -0.1198078086    4.2419115426
H       -0.3777477840   -0.9158771904    5.0203288608
H       -1.8485384585   -0.9532049496    6.0107549571
H        0.4636654521   -5.1360390476    6.8172601941
H       -0.3580783420   -3.5538378976    6.8499651289
H        1.2807092587   -3.6923579807    6.1421116467
28   
torsion grid (-45,)
C       -2.4799973605    1.2280382348    2.2437667724
N       -1.8126821602    0.0259073459    2.8467241638
C       -0.3222367083    0.1352559358    2.6308606709
C       -2.3503520375   -1.2049249948    2.1409392953
C       -2.1651961353    0.0146173190    4.3362189298
C       -1.3523937141   -0.9041461181    5.2500790003
O       -1.5104206162   -2.2646847572    4.9429635582
P       -0.2011066163   -3.1228660836    4.2444182165
O       -0.0803180176   -4.3559341833    5.2945865307
C        0.4401757787   -4.0759583716    6.5986211556
O       -0.7193818079   -3.6470293683    2.9422848481
O        0.9783110553   -2.1857498856    4.3329909578
H       -3.5535824025    1.1698478814    2.4279721729
H       -2.0736071113    2.1336232018    2.6960947111
H       -2.2913945489    1.2357825714    1.1698118763
H        0.1943819004   -0.7334679497    3.0505329361
H       -0.1461869666    0.1993178205    1.5560080351
H        0.0271743079    1.0469307246    3.1197969124
H       -1.8410634949   -2.1116069877    2.4834799723
H       -3.4214797381   -1.2631424179    2.3395914834
H       -2.1756926145   -1.0675468329    1.0721769748
H       -2.0289321732    1.0429311872    4.6851865073
H       -3.2263452162   -0.2393347412    4.3837983619
H       -0.2951508339   -0.6213033884    5.2552210760
H       -1.7550682027   -0.7131936418    6.2558610021
H        0.5521474233   -5.0371858439    7.1055214794
H       -0.2595880510   -3.4493740294    7.1660988850
H        1.4095311968   -3.5730218760    6.5313214760
28   
torsion grid (-30,)
C       -2.4412671768    0.9838461404    2.2383528802
N       -1.6880580992   -0.1235843222    2.9153924100
C       -0.2115801010    0.1493049254    2.7324579514
C       -2.0491864037   -1.4406466781    2.2623632642
C       -2.0930739834   -0.1171659761    4.3987968944
C       -1.1192786135   -0.7103731133    5.4143595485
O       -1.0321384103   -2.1085140608    5.3028909835
P        0.3769055187   -2.8092445305    4.6310679132
O        0.6281102823   -3.9886187537    5.7171717948
C        1.0939482674   -3.6104546264    7.0179617244
O       -0.0520899021   -3.4301876429    3.3367307061
O        1.4290043634   -1.7314082913    4.6968673647
H       -3.5105661014    0.8447262049    2.4068676662
H       -2.1209448977    1.9417646802    2.6490782609
H       -2.2325417915    0.9514675637    1.1684113145
H        0.3955105689   -0.6353947055    3.1881228070
H       -0.0174195411    0.2037108229    1.6602462145
H        0.0191880954    1.1077502962    3.2007991411
H       -1.4731878056   -2.2562800760    2.7171656144
H       -3.1234842880   -1.5905183895    2.3813397921
H       -1.7978306492   -1.3633842553    1.2028586799
H       -2.3347224802    0.9201245922    4.6463430721
H       -3.0274227233   -0.6820379606    4.4392341315
H       -0.1300442431   -0.2445529335    5.3657539009
H       -1.5574779537   -0.4616753322    6.3916508860
H        1.3056601718   -4.5367870924    7.5569473186
H        0.3196531323   -3.0484892083    7.5547289706
H        2.0014403393   -3.0038099895    6.9445369709
28   
torsion grid (-15,)
C       -2.3126692179    1.3816505648    2.2862762631
N       -1.8470781825    0.0441492677    2.7831873357
C       -0.3383894953    0.0261667197    2.6718755435
C       -2.4270206018   -1.0434658524    1.9065582703
C       -2.3428944084   -0.1151124359    4.2430059453
C       -1.4417689356   -0.7773183761    5.2955333429
O       -1.5677265733   -2.1758738818    5.3299932134
P       -0.5138193221   -3.1130611753    4.3779810416
O       -0.4047752737   -4.4118815434    5.3404731453
C        0.3524078773   -4.2853683437    6.5517320941
O       -1.2668427739   -3.4925176347    3.1369108963
O        0.7741980250   -2.3303535319    4.3106085910
H       -3.3982840941    1.4423858680    2.3803208375
H       -1.8424749794    2.1683755322    2.8770945302
H       -2.0307306996    1.4874914111    1.2379386483
H        0.0742026736   -0.9251540961    3.0201016569
H       -0.0877244758    0.1940225689    1.6231334089
H        0.0611707041    0.8401254938    3.2788616432
H       -2.1022626821   -2.0226753828    2.2876699628
H       -3.5141576142   -0.9474306659    1.9269697260
H       -2.0586614196   -0.8867047341    0.8909134238
H       -2.6408788348    0.8857890529    4.5612681655
H       -3.2559712827   -0.7091613117    4.1748827761
H       -0.3941214600   -0.4717109919    5.2090019008
H       -1.8212227040   -0.3969328723    6.2524217849
H        0.4023182817   -5.2827429848    6.9944824609
H       -0.1491966565   -3.6025623499    7.2475397008
H        1.3608256173   -3.9174051821    6.3412280288
28   
torsion grid (0,)
C        0.9371450694   -0.3650079141    0.9513159577
N        0.0400894598   -0.3764965383    2.1538436471
C       -1.3213314083    0.1154118372    1.7198858870
C        0.5953180137    0.5877539715    3.1808629883
C        0.0389240986   -1.8203785981    2.7456586650
C       -1.3006251485   -2.5791926174    2.9159514399
O       -1.7243652839   -2.6644398034    4.2555127503
P       -2.2258722042   -1.2170009202    4.9764118378
O       -2.9757749037   -1.8428279508    6.2656436788
C       -4.2468364362   -2.4788918611    6.0619119830
O       -0.9836680272   -0.4974854641    5.4237289784
O       -3.1820782375   -0.5728176331    4.0021480798
H        1.9400324403   -0.6762869242    1.2464343172
H        0.5400758199   -1.0510719057    0.2017003022
H        0.9723421678    0.6462615569    0.5435318889
H       -2.0278841605    0.0781438082    2.5585663140
H       -1.1943456175    1.1384422887    1.3611675860
H       -1.6757092348   -0.5115341971    0.9007768331
H       -0.0230238291    0.5202671582    4.0832149278
H        1.6195729340    0.2865701622    3.4079524465
H        0.5882188650    1.5881346699    2.7444202476
H        0.7018304161   -2.3879855767    2.0925233817
H        0.4942793835   -1.7434968912    3.7320706182
H       -2.0934991209   -2.1750747630    2.2785789463
H       -1.1098953818   -3.6073188068    2.5927628827
H       -4.6435914928   -2.7059906551    7.0539101090
H       -4.1222018220   -3.4086575662    5.4957122400
H       -4.9299566089   -1.8130464757    5.5270606152
28   
torsion grid (15,)
C        0.8861712492   -0.4712170432    0.8800570277
N        0.0916408248   -0.3940477319    2.1494067408
C       -1.2652611291    0.1788603933    1.8044177618
C        0.7733411497    0.5521317465    3.1113144803
C        0.0623658942   -1.8074309839    2.8021745654
C       -1.2640676157   -2.6050623825    2.8117624251
O       -1.8072019616   -2.7070954313    4.1093438755
P       -2.3859105958   -1.2615600055    4.7788848132
O       -3.0230426290   -1.8751127603    6.1330295732
C       -4.2635392881   -2.5919955155    6.0284076419
O       -1.1754590322   -0.4334079470    5.1261321646
O       -3.4223061930   -0.7284590890    3.8256263617
H        1.9078057217   -0.7760893167    1.1101883683
H        0.4222858133   -1.2008184335    0.2145905533
H        0.8939539587    0.5096382057    0.4023097099
H       -1.9386669220    0.1462606190    2.6630899220
H       -1.1033793736    1.2074782605    1.4775910088
H       -1.6931845552   -0.3968060686    0.9841978972
H        0.1560102622    0.5915934054    4.0134932060
H        1.7639672240    0.1539399228    3.3382659409
H        0.8651986937    1.5270903712    2.6289064639
H        0.8478958003   -2.3645128613    2.2900364753
H        0.3423770131   -1.6625451080    3.8433088036
H       -2.0021958077   -2.2051521678    2.1078991622
H       -1.0292205881   -3.6259080165    2.4963434494
H       -4.5993793592   -2.7827136922    7.0501282544
H       -4.1109120428   -3.5443007874    5.5087629802
H       -5.0081317513   -1.9973519173    5.4919946911
28   
torsion grid (30,)
C        0.6407637388   -0.6482836520    0.9893529658
N        0.0034537088   -0.4573034324    2.3318067530
C       -1.3203250527    0.2508875366    2.1260599041
C        0.8569361833    0.4353579818    3.1950947479
C       -0.0621064503   -1.8325088170    3.0453160046
C       -1.3526320909   -2.6750653027    2.9263700060
O       -2.0166117501   -2.7698333061    4.1664512019
P       -2.6923797971   -1.3242327610    4.7453018287
O       -3.3331311692   -1.9094020027    6.1121815731
C       -4.5363870557   -2.6872988792    6.0087837211
O       -1.5321039019   -0.4194247075    5.0927847364
O       -3.7218436786   -0.8910977317    3.7412399217
H        1.6465124279   -1.0503924882    1.1175971680
H        0.0343363298   -1.3460415438    0.4097623192
H        0.6904917990    0.3110027962    0.4725032933
H       -1.7735422512    0.4422016053    3.0946675775
H       -1.0987325747    1.1812342593    1.5994259750
H       -1.9838391656   -0.3674765334    1.5277922949
H        0.3198255863    0.5709984812    4.1359782140
H        1.8182808033   -0.0535673182    3.3627845252
H        1.0063910472    1.3866252001    2.6808659756
H        0.8014059139   -2.3755857837    2.6560131009
H        0.0760661470   -1.6279559328    4.1041224613
H       -2.0263637216   -2.3079044802    2.1422558629
H       -1.0604193632   -3.6932219168    2.6528392638
H       -4.8939601080   -2.8442871768    7.0289444458
H       -4.3256873891   -3.6554455011    5.5412305912
H       -5.2905136038   -2.1547603945    5.4227742344
28   
torsion grid (45,)
C        0.3602574601   -0.8540298602    1.0774911601
N       -0.0178564490   -0.5187363834    2.4872659954
C       -1.2952179436    0.2990980610    2.4809341690
C        1.0540347934    0.3322876245    3.1096244189
C       -0.0747284502   -1.8188509457    3.3111429520
C       -1.3199999367   -2.7202589328    3.1261689728
O       -2.0464237326   -2.8471091381    4.3254673696
P       -2.8314928305   -1.4283063653    4.8374093265
O       -3.6176839308   -2.0510505611    6.1084661543
C       -4.7706052050   -2.8673454717    5.8495085538
O       -1.7513741849   -0.4963147703    5.3316123215
O       -3.7478622199   -1.0258653894    3.7145132580
H        1.3255728424   -1.3621636297    1.0720498140
H       -0.4046792583   -1.5060205593    0.6547753770
H        0.4201670573    0.0645683602    0.4922975251
H       -1.5283115518    0.5724638630    3.5095640892
H       -1.1067634427    1.1716257306    1.8517285525
H       -2.1239252886   -0.2891815067    2.0948502002
H        0.7260633236    0.5973859577    4.1147524668
H        1.9843862655   -0.2363885651    3.1522083377
H        1.1925990258    1.2306106004    2.5056701978
H        0.8309812447   -2.3556627737    3.0184378315
H       -0.0339488369   -1.5219225982    4.3580715222
H       -1.9656075341   -2.3678337871    2.3100908813
H       -0.9777688504   -3.7247399158    2.8602153830
H       -5.2422516694   -3.0555682363    6.8166962632
H       -4.4706418808   -3.8189301653    5.3968030279
H       -5.4678202999   -2.3502143656    5.1844860752
28   
torsion grid (60,)
C       -0.6116486491   -0.2511736295    1.6029192613
N        0.2336294147    0.0392129811    2.8201161597
C       -0.2369386650    1.2966786664    3.5245576602
C        1.6451797979    0.2845586546    2.3600116889
C        0.2881920097   -1.1743636661    3.7461432016
C       -1.0489431594   -1.7375848785    4.2463140512
O       -1.8432815617   -0.8092042829    4.9346155004
P       -3.2885871775   -0.2494158424    4.1964766347
O       -4.3903277584   -0.7718662175    5.2712995358
C       -4.6495283689   -2.1777221412    5.3370631168
O       -3.2128500562    1.2417021277    4.2672906091
O       -3.3803888329   -1.0040811646    2.8915244932
H       -0.1858060962   -1.1160309817    1.0907502542
H       -1.6460383530   -0.4531005196    1.9059959045
H       -0.5734059390    0.6242077746    0.9527694597
H        0.3316058710    1.3948043370    4.4500564381
H       -0.0198977989    2.1355076202    2.8604311893
H       -1.3060769456    1.2651201490    3.7488176400
H        2.2679322363    0.5149554074    3.2252404655
H        2.0231378429   -0.6059845159    1.8564266765
H        1.6497039602    1.1284449535    1.6696296390
H        0.7295360009   -1.9800908687    3.1513379864
H        0.9465052463   -0.8955534703    4.5708983299
H       -1.6020509195   -2.1797358776    3.4122713384
H       -0.7627450879   -2.5507581703    4.9302059849
H       -5.4953560909   -2.3108941073    6.0155163792
H       -3.7797035562   -2.7121976415    5.7404969845
H       -4.8970508105   -2.5755868394    4.3482437198
28   
torsion grid (75,)
C       -0.4869349043   -0.9136979790    1.4885700903
N        0.0895196859   -0.5101354279    2.8248363129
C       -0.7199718113    0.6269607554    3.4181699851
C        1.4922777789   -0.0180208950    2.6147221309
C        0.1684277814   -1.7003359511    3.7850508096
C       -1.0588085559   -2.6061568902    3.8934405931
O       -2.1835073997   -1.9448900787    4.4116728544
P       -3.5079146487   -1.6089729216    3.3766540107
O       -4.7117765008   -2.2797269686    4.2358530472
C       -4.7709124420   -3.7087961719    4.3022478700
O       -3.6669922846   -0.1212287538    3.4037630309
O       -3.2223261441   -2.3731596975    2.1073725702
H        0.1361580055   -1.7090773134    1.0746954007
H       -1.5157549953   -1.2686323219    1.6010789325
H       -0.4559118033   -0.0397640028    0.8361331877
H       -0.2857101963    0.8764272345    4.3874142683
H       -0.6310622306    1.4771795669    2.7392840228
H       -1.7738606352    0.3480659002    3.5219828193
H        1.9290730439    0.2378663450    3.5810464755
H        2.0827910463   -0.7995067491    2.1348570362
H        1.4650158177    0.8669620191    1.9782360225
H        1.0120792706   -2.3077666368    3.4431116761
H        0.4139184158   -1.2729101466    4.7597262524
H       -1.2875406172   -3.0809430816    2.9342269145
H       -0.7526701462   -3.3972761414    4.5938661953
H       -5.7018977184   -3.9614064962    4.8149725103
H       -3.9241851142   -4.1025706301    4.8786171578
H       -4.7654294137   -4.1457259813    3.2991730277
28   
torsion grid (90,)
C       -0.7305354897   -1.2240740407    1.3584581116
N       -0.1536217208   -0.7203279093    2.6604069607
C       -0.9871029418    0.4512403168    3.1453626628
C        1.2464724733   -0.2410995162    2.4246279476
C       -0.1004493723   -1.8150372188    3.7399778517
C       -1.2280145902   -2.8438256748    3.7854130180
O       -2.4296518782   -2.2855721505    4.2537990048
P       -3.7068541140   -1.9997899273    3.1521505132
O       -4.9420659583   -2.5896019068    4.0237665588
C       -5.0238097517   -4.0102388815    4.1896502237
O       -3.8471411526   -0.5105804905    3.0638812514
O       -3.3926690116   -2.8503153848    1.9476200274
H       -0.1178216717   -2.0584034168    1.0113553047
H       -1.7620666384   -1.5573541243    1.4856536282
H       -0.6822594280   -0.4054660061    0.6387675592
H       -0.5392569231    0.8229456525    4.0682920509
H       -0.9501707752    1.2237288283    2.3750120170
H       -2.0267479185    0.1356564935    3.2981021288
H        1.6780548029    0.0796967443    3.3740012338
H        1.8398111853   -1.0525311253    2.0008862310
H        1.2212865798    0.5995213079    1.7302657879
H        0.8724619031   -2.3028856387    3.6325149630
H       -0.0832885843   -1.2755671189    4.6896631901
H       -1.3710738020   -3.3511297136    2.8261376857
H       -0.8836804011   -3.5942892935    4.5113956742
H       -5.9673013263   -4.2124336814    4.7018515671
H       -4.1922693979   -4.3731990301    4.8062391312
H       -5.0079407247   -4.5161885895    3.2197591054
28   
torsion grid (105,)
C       -1.1080272650   -0.9622142874    1.5246410465
N        0.1494007762   -0.8171166280    2.3490610544
C        0.2535192017    0.6210847991    2.8183557532
C        1.3329957907   -1.1199164596    1.4808419774
C        0.1938884618   -1.7703087215    3.5716635397
C       -1.1039641778   -2.3814665660    4.1237654319
O       -1.7229553111   -1.5842975150    5.1006097329
P       -2.8707737897   -0.4328406854    4.6017959796
O       -3.8203500995   -0.4508273905    5.9141651912
C       -4.6518583838   -1.6004673405    6.1232103532
O       -2.1641732141    0.8890373169    4.5330460217
O       -3.5430833137   -1.0302148821    3.3901790026
H       -1.1620156812   -1.9872111488    1.1532101754
H       -1.9990932173   -0.7423265908    2.1204298465
H       -1.0257939278   -0.2732668729    0.6822623152
H        1.2105589429    0.7394677068    3.3296346795
H        0.2213299499    1.2638708929    1.9366398638
H       -0.5883194002    0.8419653059    3.4905356033
H        2.2443380649   -1.0327229568    2.0742507695
H        1.2406460007   -2.1326292836    1.0856369425
H        1.3613582947   -0.4040628813    0.6583391500
H        0.9009784762   -2.5563199978    3.2991376799
H        0.6529843378   -1.1929386338    4.3755375155
H       -1.8068750787   -2.6643897886    3.3335166316
H       -0.7782443166   -3.3020005047    4.6239139417
H       -5.2903219611   -1.3723933450    6.9797201607
H       -4.0386294807   -2.4805113400    6.3497916168
H       -5.2658026980   -1.7997991152    5.2400810284
28   
torsion grid (120,)
C       -1.0285747313   -1.0255934830    1.4813733709
N        0.2389832633   -0.8076781502    2.2741898207
C        0.3471123960    0.6661757134    2.6070186028
C        1.4017321103   -1.1864959413    1.4056533401
C        0.3216032450   -1.6413359866    3.5907062724
C       -0.8768166490   -2.5266258776    4.0145065927
O       -1.6042007792   -1.9961033692    5.0965896804
P       -2.4930848025   -0.5894554092    4.7842855381
O       -3.4377905155   -0.6104409458    6.0969888130
C       -4.4989753704   -1.5763651696    6.1472142539
O       -1.5341578970    0.5647200097    4.8791766368
O       -3.2598511727   -0.8526365727    3.5108246247
H       -1.0578524387   -2.0628108367    1.1450803481
H       -1.9083636655   -0.8013195607    2.0977521814
H       -0.9816804620   -0.3668936448    0.6122778879
H        1.3146398988    0.8349291016    3.0831783111
H        0.2867401107    1.2290644585    1.6738723957
H       -0.4601894364    0.9211897290    3.3028865131
H        2.3309769957   -0.9960487232    1.9440701840
H        1.3292094229   -2.2450363771    1.1513690965
H        1.3758327476   -0.5862431366    0.4950318249
H        1.2110612095   -2.2601192772    3.4714500011
H        0.4937527518   -0.9246969528    4.3926246802
H       -1.5386317462   -2.7626969572    3.1752187585
H       -0.4477497100   -3.4682763682    4.3709074803
H       -5.0935112159   -1.3395618921    7.0323674105
H       -4.0899432430   -2.5885417786    6.2408758356
H       -5.1201430646   -1.5138849316    5.2492557052
28   
torsion grid (135,)
C       -1.0910594440   -0.8918615026    1.5066627164
N        0.1626250061   -0.7796231341    2.3451530510
C        0.3721032668    0.6786811680    2.6864457596
C        1.3129242504   -1.2629370162    1.5138553366
C        0.1383007232   -1.5874389072    3.6765362620
C       -1.0040477306   -2.6032486065    3.9200358542
O       -1.8925348287   -2.1665073482    4.9243771119
P       -2.8439345555   -0.8207769488    4.5290079727
O       -3.7716307654   -0.7984048387    5.8536955891
C       -4.8076359849   -1.7871189024    5.9667307451
O       -1.9255661765    0.3740226844    4.5412250673
O       -3.6041285689   -1.1815855355    3.2802326555
H       -1.1598921236   -1.9039907763    1.1086774027
H       -1.9830277441   -0.6705002456    2.0964848934
H       -0.9870426281   -0.1858601748    0.6809399405
H        1.2929412189    0.7651275250    3.2660624188
H        0.4639686943    1.2405457378    1.7550211407
H       -0.4899193897    0.9964929097    3.2803029138
H        2.2458710155   -1.0912739319    2.0520930325
H        1.1875702405   -2.3291811680    1.3192509344
H        1.3269937963   -0.7160782690    0.5698448332
H        1.1106419637   -2.0797358098    3.7187872036
H        0.0711878064   -0.8502520222    4.4736793159
H       -1.5446228954   -2.8582214186    3.0019449088
H       -0.5439058923   -3.5218167715    4.2959309123
H       -5.4097707441   -1.5085404181    6.8344283611
H       -4.3717689564   -2.7795028358    6.1261603176
H       -5.4279434342   -1.7999356827    5.0662769947
28   
torsion grid (150,)
C       -1.4411127836   -0.6137573159    1.7692819948
N       -0.1957171065   -0.6429943172    2.6307720801
C        0.1433508292    0.7847853042    2.9761800543
C        0.9081263689   -1.2598096095    1.8271116427
C       -0.3167508739   -1.4102864215    3.9737996388
C       -1.3707159234   -2.5341066966    4.1017291503
O       -2.3927158698   -2.1735581797    5.0040820783
P       -3.4100570791   -0.9159536950    4.4895857366
O       -4.3872393123   -0.8775896071    5.7797653663
C       -5.3716698670   -1.9162118886    5.9059741801
O       -2.5651252169    0.3372944446    4.4726331994
O       -4.0918100451   -1.3894034087    3.2378499924
H       -1.7186652407   -1.6262231049    1.4877561518
H       -2.2516240697   -0.1507909476    2.3249245434
H       -1.1920000251   -0.0349959011    0.8777535542
H        1.0381934737    0.7903135633    3.6011334132
H        0.3296422816    1.3363241330    2.0526900628
H       -0.7138704603    1.1889206215    3.5189354291
H        1.8460431233   -1.1834591941    2.3785918844
H        0.6681392364   -2.3091460348    1.6485996971
H        0.9974585432   -0.7366711372    0.8740590204
H        0.6911924054   -1.7867395457    4.1588765515
H       -0.5727517010   -0.6642303613    4.7219913411
H       -1.7864969758   -2.8369163866    3.1330759405
H       -0.8732980566   -3.4091277245    4.5303019520
H       -6.0258830961   -1.6261018344    6.7312325598
H       -4.8898016600   -2.8721659746    6.1388844949
H       -5.9497712256   -2.0135357843    4.9829198559
28   
torsion grid (165,)
C       -1.3091016340   -0.3726470637    1.6790623995
N        0.0358151792   -0.5460705752    2.3603079317
C        0.6712103039    0.8110789097    2.4616834927
C        0.8789526522   -1.4511153078    1.5143404393
C       -0.0149133293   -1.1191550958    3.7909149153
C       -0.9816163237   -2.2979599262    4.0582017319
O       -1.9856453089   -1.9416476700    4.9786619958
P       -3.1114367476   -0.8029519243    4.4079898360
O       -4.0906658833   -0.7888694089    5.6974195206
C       -4.9749500780   -1.9057139558    5.8802391363
O       -2.3811019864    0.5165802146    4.3275799195
O       -3.7470291305   -1.4106928039    3.1882700498
H       -1.8423387878   -1.3186183276    1.6412369379
H       -1.9006315618    0.3280295089    2.2665215518
H       -1.1051438978    0.0011980533    0.6734645873
H        1.6350625465    0.7185141943    2.9650513360
H        0.8109707638    1.2160150191    1.4578974213
H       -0.0001219275    1.4464241981    3.0398679680
H        1.8814703913   -1.5173508614    1.9396258342
H        0.4186490677   -2.4393673629    1.4943142822
H        0.9318383010   -1.0522733424    0.5005113030
H        1.0168064087   -1.4193755346    3.9894618594
H       -0.3134170796   -0.2976889336    4.4399698265
H       -1.4174449247   -2.6946431362    3.1311561451
H       -0.4085322812   -3.1074685494    4.5198869362
H       -5.6515910059   -1.6368738031    6.6946176868
H       -4.4068951362   -2.8009916369    6.1563319073
H       -5.5434689547   -2.1010921349    4.9668023746
28   
torsion grid (180,)
C       -2.7622412314    0.3168802310    2.2702947719
N       -1.2554743796    0.2534013774    2.4417830765
C       -0.6854033672    1.6125842451    2.1688158527
C       -0.6965668698   -0.7338743131    1.4416993930
C       -0.8372759136   -0.1392111421    3.8575886732
C       -1.2164158439   -1.5427291427    4.3546826474
O       -2.5875843769   -1.8298473914    4.3132401222
P       -3.1505172447   -2.9941842732    3.1822538045
O       -3.7158053989   -4.1395312082    4.1880367493
C       -2.7656051822   -4.9157095235    4.9242324509
O       -4.3034889762   -2.3424407887    2.4912350753
O       -1.9119582810   -3.4571037460    2.4515709444
H       -3.2201420567   -0.6730955115    2.2573283952
H       -3.1752620266    0.8932849753    3.0990593728
H       -2.9534793179    0.8304685998    1.3259529782
H        0.3967211777    1.5855699168    2.3037516868
H       -0.9227166154    1.8959786293    1.1429306624
H       -1.1288911194    2.3303861823    2.8601719039
H        0.3923802473   -0.7285445411    1.5241101670
H       -1.0968654227   -1.7342483672    1.6457273776
H       -0.9952006173   -0.4052842726    0.4450103214
H        0.2572833739   -0.1477803339    3.8451806238
H       -1.2175500257    0.6452133862    4.5145158296
H       -0.6452966997   -2.2954790111    3.8035790498
H       -0.8712423440   -1.5565588451    5.3996919759
H       -3.3275229373   -5.7019095683    5.4337341439
H       -2.2586166652   -4.2954072416    5.6748144270
H       -2.0228768640   -5.3608560640    4.2551788961
