12   
torsion grid (-165,)
C        0.0086337412   -1.1174186726   -0.4333105264
C        0.0141232302    1.1936375959    0.0981551150
C        0.1471079407   -0.3801258263   -1.7612953002
C        0.0341431177    1.1169902891   -1.4243518735
N       -0.1687582309   -0.1276313180    0.5520577314
O        0.0402051702   -2.3105197172   -0.2369004565
O        0.1645341595    2.1663745510    0.8008194869
Br      -0.2360843192   -0.5463568036    2.3723556594
H        1.1160988042   -0.6471959945   -2.1911342463
H       -0.6244025102   -0.7416963914   -2.4447537196
H       -0.8909581387    1.5657923339   -1.7972809702
H        0.8649895230    1.7210886587   -1.7935963796
12   
torsion grid (-150,)
C       -0.1086708953   -1.0966587671   -0.4386304964
C        0.0571043099    1.2063008637    0.0366745076
C        0.0986629092   -0.3985337449   -1.7800004888
C        0.0040403312    1.1114472448   -1.4836135812
N       -0.3339300721   -0.0711753627    0.5037959848
O       -0.0949687972   -2.2823305066   -0.2036363533
O        0.4547460188    2.1215545712    0.7181528055
Br      -0.3840324144   -0.4545739734    2.3378783915
H        1.0829911274   -0.6894746743   -2.1568598917
H       -0.6459671144   -0.7637361841   -2.4905894872
H       -0.9438899249    1.5399849678   -1.8227983636
H        0.8144247867    1.7057388722   -1.9075021261
12   
torsion grid (-135,)
C       -0.0780647354   -1.0884401510   -0.4263089368
C        0.0619169352    1.1913843570    0.0585855355
C        0.1392389215   -0.3772202490   -1.7607736331
C       -0.0449713263    1.1272181473   -1.4596420846
N       -0.4267169317   -0.0750317401    0.4980224451
O        0.0083834137   -2.2693465372   -0.1859719498
O        0.6246540717    2.0095407990    0.7449219286
Br      -0.4478661992   -0.4749536008    2.3356020643
H        1.1532439436   -0.6076400536   -2.0989758272
H       -0.5563955241   -0.7765401793   -2.5018113798
H       -1.0332203848    1.4827932106   -1.7655913919
H        0.7115770588    1.7723284025   -1.9069319442
12   
torsion grid (-120,)
C        0.0081655727   -0.9911195365   -0.4418158151
C        0.0917766509    1.2820978451   -0.0347299205
C        0.2093125397   -0.3102889421   -1.7974721925
C       -0.0686867052    1.1963816186   -1.5469975612
N       -0.4547572073    0.0332813493    0.4222154089
O        0.1746730950   -2.1509649134   -0.1511408521
O        0.8083383491    2.0257054902    0.5883985597
Br      -0.4786321954   -0.3206131586    2.2764401717
H        1.2411613732   -0.4866493347   -2.1131678506
H       -0.4498717714   -0.7696183794   -2.5372724179
H       -1.0878095269    1.4670705088   -1.8354777886
H        0.6364971528    1.8678674095   -2.0362648009
12   
torsion grid (-105,)
C       -0.0210201184   -1.0008775347   -0.4217284873
C        0.1238166615    1.2401201317   -0.0109672156
C        0.2069999036   -0.3068301387   -1.7711865910
C       -0.1046213898    1.2004009366   -1.5158165116
N       -0.5359804077    0.0201419199    0.4200321926
O        0.1526328110   -2.1584941239   -0.1297498489
O        1.0145792103    1.8203126007    0.5577535711
Br      -0.5854920851   -0.3492727406    2.2778593012
H        1.2524284951   -0.4548427303   -2.0555422068
H       -0.4211577064   -0.7689398088   -2.5357715067
H       -1.1400143833    1.4379378490   -1.7694940731
H        0.5737110061    1.8828795978   -2.0269088674
12   
torsion grid (-90,)
C        0.0043226347   -0.9705139159   -0.4053284574
C        0.1381616407    1.2417737246   -0.0224224215
C        0.2204039306   -0.2804609037   -1.7638022721
C       -0.1291903565    1.2302127852   -1.5201805003
N       -0.6096512547    0.0386496938    0.3889395676
O        0.2387158355   -2.1098285190   -0.0889191111
O        1.1472832972    1.6521850109    0.4930048824
Br      -0.6765106134   -0.3091747922    2.2584545863
H        1.2666889783   -0.4038613735   -2.0544078977
H       -0.4070696960   -0.7555887933   -2.5212548934
H       -1.1723974785    1.4379870627   -1.7621626900
H        0.5340885855    1.9169467479   -2.0454526038
12   
torsion grid (-75,)
C        0.0159671727   -0.9732605325   -0.3686131637
C        0.1512125451    1.2157123994   -0.0104274362
C        0.2217540009   -0.2801462793   -1.7365386483
C       -0.1618189648    1.2371492426   -1.5005325824
N       -0.6730534373    0.0274112671    0.3741629210
O        0.2880555808   -2.0972433991   -0.0332683360
O        1.2550046322    1.4665870912    0.4057218215
Br      -0.7975372422   -0.3051072912    2.2523055665
H        1.2694639245   -0.3764335232   -2.0305086793
H       -0.4027055176   -0.7659545552   -2.4901013930
H       -1.2124827725    1.4199991170   -1.7246366417
H        0.4865580036    1.9244914559   -2.0434378511
12   
torsion grid (75,)
C        0.0182179187   -0.9740911629   -0.3702354263
C       -0.1376994344    1.2159789864   -0.0274909558
C       -0.0179613976   -0.2786818042   -1.7519274033
C        0.3493685317    1.2348188527   -1.4701521902
N        0.6240900233    0.0197584377    0.4501253176
O       -0.3021941955   -2.0955127919   -0.0709439598
O       -1.2805042509    1.4772739311    0.2557005237
Br       0.5226716015   -0.3144299136    2.3293585545
H        0.6865303823   -0.7702325996   -2.4271202623
H       -1.0244678999   -0.3648809667   -2.1677400228
H       -0.2238032417    1.9284654103   -2.0848934326
H        1.4208312262    1.4076852805   -1.5683160794
12   
torsion grid (90,)
C        0.0341445193   -0.9714462478   -0.4053135034
C       -0.1230771199    1.2419178965   -0.0378246374
C       -0.0134025961   -0.2790027918   -1.7788407890
C        0.3192252670    1.2281991809   -1.4935273797
N        0.5594952286    0.0315986348    0.4573245257
O       -0.2467461407   -2.1085536396   -0.1203927863
O       -1.1820997526    1.6618116278    0.3553546864
Br       0.4017323730   -0.3173409563    2.3211621645
H        0.6946425692   -0.7599016377   -2.4575252406
H       -1.0191480097   -0.3923289931   -2.1911818810
H       -0.2708329887    1.9213745213   -2.0925203283
H        1.3856313950    1.4260652875   -1.6102908516
12   
torsion grid (105,)
C        0.0609589814   -1.0020454221   -0.4186448573
C       -0.1102018548    1.2401259255   -0.0247591916
C        0.0005293977   -0.3054988980   -1.7846256521
C        0.2940317695    1.1986205997   -1.4921397542
N        0.4824960893    0.0137896156    0.4794709717
O       -0.1569057198   -2.1580272080   -0.1508311428
O       -1.0563904237    1.8286498079    0.4355577062
Br       0.3086859271   -0.3565672437    2.3296239944
H        0.7102191071   -0.7733861840   -2.4702929386
H       -1.0053368998   -0.4434465783   -2.1906926877
H       -0.3126892683    1.8876797976   -2.0788377405
H        1.3543419144    1.4263252044   -1.6213991353
12   
torsion grid (120,)
C        0.0344448074   -0.9920046597   -0.4420277640
C       -0.0751838772    1.2818004983   -0.0445104726
C        0.0013054364   -0.3089270339   -1.8110058385
C        0.2619958952    1.1949539099   -1.5273510845
N        0.4017118780    0.0277013297    0.4720619178
O       -0.1761911755   -2.1502835077   -0.1746697412
O       -0.8532825030    2.0320529601    0.4906396610
Br       0.2030181244   -0.3268935065    2.3156303690
H        0.7389007025   -0.7743357949   -2.4683943503
H       -0.9876423727   -0.4753419179   -2.2466283206
H       -0.3740691386    1.8732725051   -2.0955630693
H        1.3105753557    1.4559734239   -1.6930448211
12   
torsion grid (135,)
C        0.1173138665   -1.0901477581   -0.4165768641
C       -0.0574110821    1.1907817311    0.0515533027
C        0.0659169766   -0.3765356299   -1.7663789676
C        0.2274729533    1.1259961894   -1.4435064593
N        0.3638907042   -0.0803586243    0.5438759856
O       -0.0080800564   -2.2702378744   -0.1897744152
O       -0.6895298558    2.0140988780    0.6677400526
Br       0.1640203463   -0.4809454706    2.3705304452
H        0.8404218076   -0.7822870230   -2.4206029226
H       -0.9031629616   -0.5971734418   -2.2223209598
H       -0.4648111397    1.7784176408   -1.9761321504
H        1.2482594497    1.4722003502   -1.6300861340
12   
torsion grid (150,)
C        0.1490835259   -1.0986571352   -0.4252148145
C       -0.0499057443    1.2056538181    0.0303886064
C        0.1082750991   -0.3982248583   -1.7807106565
C        0.1814906796    1.1107041823   -1.4731169483
N        0.2711119079   -0.0756241347    0.5386511465
O        0.0965095586   -2.2842068887   -0.1951377327
O       -0.5166020209    2.1244813606    0.6613971497
Br       0.1005660312   -0.4599740130    2.3652741159
H        0.9281513826   -0.7703329908   -2.3988707805
H       -0.8273457228   -0.6796493487   -2.2716136720
H       -0.5674877562    1.7128222105   -1.9889389689
H        1.1668616315    1.5302587406   -1.6973508695
12   
torsion grid (165,)
C        0.0318527275   -1.1180790038   -0.4337354656
C       -0.0146466834    1.1927348537    0.0965055479
C        0.0578846141   -0.3792716197   -1.7678174159
C        0.1447049365    1.1166558030   -1.4178379584
N        0.1007382461   -0.1303061613    0.5671212399
O       -0.0337409531   -2.3108714746   -0.2440597920
O       -0.2379669366    2.1666903517    0.7777614171
Br      -0.0511469960   -0.5501585024    2.3821045674
H        0.9013872975   -0.7480980937   -2.3556497413
H       -0.8559356644   -0.6369631291   -2.3096225825
H       -0.6307984443    1.7291229837   -1.8815766657
H        1.1117683702    1.5561407837   -1.6784531414
12   
torsion grid (180,)
C        0.0230231128   -1.1222204002   -0.4245461995
C       -0.0033222257    1.1958770537    0.0997538884
C        0.1016554104   -0.3895945427   -1.7598156337
C        0.0899712047    1.1109800023   -1.4200976125
N       -0.0348819775   -0.1292048698    0.5694341076
O        0.0104509357   -2.3162406122   -0.2302424109
O       -0.0427455476    2.1895218761    0.7887446948
Br      -0.1442612777   -0.5416254924    2.3873788305
H        1.0101945615   -0.7130084243   -2.2733722807
H       -0.7483627452   -0.7036448857   -2.3703858901
H       -0.7619993757    1.6472945746   -1.8447068663
H        0.9957765436    1.6348695339   -1.7347611567
