
  -OEChem-12122420533D

 61 64  0     1  0  0  0  0  0999 V2000
    5.9103    5.9945    1.7649 C   0  0  0  0  0  0  0  0  0  0  0  0
    4.5108    5.4508    1.9217 C   0  0  0  0  0  0  0  0  0  0  0  0
    3.4344    6.3288    2.0975 C   0  0  0  0  0  0  0  0  0  0  0  0
    2.1322    5.8768    2.3105 C   0  0  0  0  0  0  0  0  0  0  0  0
    1.8835    4.4980    2.3550 C   0  0  0  0  0  0  0  0  0  0  0  0
    2.9478    3.6016    2.1657 C   0  0  0  0  0  0  0  0  0  0  0  0
    4.2521    4.0564    1.9432 C   0  0  0  0  0  0  0  0  0  0  0  0
    5.3407    3.1464    1.7768 N   0  0  0  0  0  0  0  0  0  0  0  0
    5.1647    1.8204    2.3592 C   0  0  0  0  0  0  0  0  0  0  0  0
    5.8433    3.0603    0.4042 C   0  0  0  0  0  0  0  0  0  0  0  0
    0.5451    3.9679    2.5903 C   0  0  0  0  0  0  0  0  0  0  0  0
    0.1675    2.7189    2.6516 N   0  0  0  0  0  0  0  0  0  0  0  0
   -1.2071    2.7560    2.8874 C   0  0  0  0  0  0  0  0  0  0  0  0
   -1.6093    4.0600    2.9651 C   0  0  0  0  0  0  0  0  0  0  0  0
   -0.4879    4.8475    2.7702 O   0  0  0  0  0  0  0  0  0  0  0  0
   -2.8998    4.7497    3.2234 C   0  0  0  0  0  0  0  0  0  0  0  0
   -2.0017    1.4976    3.0685 C   0  0  0  0  0  0  0  0  0  0  0  0
   -2.2598    1.1545    4.5365 C   0  0  0  0  0  0  0  0  0  0  0  0
   -3.1527    2.1345    5.0466 O   0  0  0  0  0  0  0  0  0  0  0  0
   -3.4921    2.0761    6.3894 C   0  0  0  0  0  0  0  0  0  0  0  0
   -4.3414    3.0953    6.8429 C   0  0  0  0  0  0  0  0  0  0  0  0
   -4.7618    3.1201    8.1764 C   0  0  0  0  0  0  0  0  0  0  0  0
   -4.3352    2.1287    9.0642 C   0  0  0  0  0  0  0  0  0  0  0  0
   -3.4850    1.1165    8.5974 C   0  0  0  0  0  0  0  0  0  0  0  0
   -3.0528    1.0757    7.2679 C   0  0  0  0  0  0  0  0  0  0  0  0
   -3.1397    0.1697    9.7299 C   0  0  0  0  0  0  0  0  0  0  0  0
   -4.2349    0.4741   10.7803 C   0  0  0  0  0  0  0  0  0  0  0  0
   -4.6415    1.9497   10.5406 C   0  0  2  0  0  0  0  0  0  0  0  0
   -3.9665    2.5850   11.1303 H   0  0  0  0  0  0  0  0  0  0  0  0
   -6.0652    2.2814   10.9839 C   0  0  0  0  0  0  0  0  0  0  0  0
   -6.3007    2.1740   12.5325 C   0  0  0  0  0  0  0  0  0  0  0  0
   -7.5129    2.1719   12.8785 O   0  0  0  0  0  0  0  0  0  0  0  0
   -5.2613    2.1282   13.2526 O   0  5  0  0  0  0  0  0  0  0  0  0
    6.1783    6.1470    0.7115 H   0  0  0  0  0  0  0  0  0  0  0  0
    6.0047    6.9635    2.2639 H   0  0  0  0  0  0  0  0  0  0  0  0
    6.6424    5.3030    2.1913 H   0  0  0  0  0  0  0  0  0  0  0  0
    3.6291    7.3994    2.0949 H   0  0  0  0  0  0  0  0  0  0  0  0
    1.3203    6.5811    2.4601 H   0  0  0  0  0  0  0  0  0  0  0  0
    2.7257    2.5412    2.1959 H   0  0  0  0  0  0  0  0  0  0  0  0
    6.1358    1.3141    2.3765 H   0  0  0  0  0  0  0  0  0  0  0  0
    4.8061    1.9102    3.3873 H   0  0  0  0  0  0  0  0  0  0  0  0
    4.4627    1.1784    1.7992 H   0  0  0  0  0  0  0  0  0  0  0  0
    6.7983    2.5233    0.3979 H   0  0  0  0  0  0  0  0  0  0  0  0
    5.1411    2.5292   -0.2624 H   0  0  0  0  0  0  0  0  0  0  0  0
    6.0111    4.0558   -0.0084 H   0  0  0  0  0  0  0  0  0  0  0  0
   -2.8698    5.2923    4.1748 H   0  0  0  0  0  0  0  0  0  0  0  0
   -3.1340    5.4662    2.4276 H   0  0  0  0  0  0  0  0  0  0  0  0
   -3.6981    4.0106    3.2952 H   0  0  0  0  0  0  0  0  0  0  0  0
   -2.9686    1.5727    2.5596 H   0  0  0  0  0  0  0  0  0  0  0  0
   -1.4472    0.6745    2.6074 H   0  0  0  0  0  0  0  0  0  0  0  0
   -2.7077    0.1535    4.6166 H   0  0  0  0  0  0  0  0  0  0  0  0
   -1.3172    1.1589    5.1002 H   0  0  0  0  0  0  0  0  0  0  0  0
   -4.6714    3.8503    6.1335 H   0  0  0  0  0  0  0  0  0  0  0  0
   -5.4318    3.9069    8.5149 H   0  0  0  0  0  0  0  0  0  0  0  0
   -2.3995    0.2754    6.9328 H   0  0  0  0  0  0  0  0  0  0  0  0
   -3.1108   -0.8810    9.4161 H   0  0  0  0  0  0  0  0  0  0  0  0
   -2.1423    0.4146   10.1240 H   0  0  0  0  0  0  0  0  0  0  0  0
   -5.1072   -0.1645   10.5901 H   0  0  0  0  0  0  0  0  0  0  0  0
   -3.9253    0.3168   11.8140 H   0  0  0  0  0  0  0  0  0  0  0  0
   -6.7872    1.6368   10.4665 H   0  0  0  0  0  0  0  0  0  0  0  0
   -6.3168    3.3126   10.6985 H   0  0  0  0  0  0  0  0  0  0  0  0
  1  2  1  0  0  0  0
  1 34  1  0  0  0  0
  1 35  1  0  0  0  0
  1 36  1  0  0  0  0
  2  3  2  0  0  0  0
  2  7  1  0  0  0  0
  3  4  1  0  0  0  0
  3 37  1  0  0  0  0
  4  5  2  0  0  0  0
  4 38  1  0  0  0  0
  5  6  1  0  0  0  0
  5 11  1  0  0  0  0
  6  7  2  0  0  0  0
  6 39  1  0  0  0  0
  7  8  1  0  0  0  0
  8  9  1  0  0  0  0
  8 10  1  0  0  0  0
  9 40  1  0  0  0  0
  9 41  1  0  0  0  0
  9 42  1  0  0  0  0
 10 43  1  0  0  0  0
 10 44  1  0  0  0  0
 10 45  1  0  0  0  0
 11 12  2  0  0  0  0
 11 15  1  0  0  0  0
 12 13  1  0  0  0  0
 13 14  2  0  0  0  0
 13 17  1  0  0  0  0
 14 15  1  0  0  0  0
 14 16  1  0  0  0  0
 16 46  1  0  0  0  0
 16 47  1  0  0  0  0
 16 48  1  0  0  0  0
 17 18  1  0  0  0  0
 17 49  1  0  0  0  0
 17 50  1  0  0  0  0
 18 19  1  0  0  0  0
 18 51  1  0  0  0  0
 18 52  1  0  0  0  0
 19 20  1  0  0  0  0
 20 21  1  0  0  0  0
 20 25  2  0  0  0  0
 21 22  2  0  0  0  0
 21 53  1  0  0  0  0
 22 23  1  0  0  0  0
 22 54  1  0  0  0  0
 23 24  2  0  0  0  0
 23 28  1  0  0  0  0
 24 25  1  0  0  0  0
 24 26  1  0  0  0  0
 25 55  1  0  0  0  0
 26 27  1  0  0  0  0
 26 56  1  0  0  0  0
 26 57  1  0  0  0  0
 27 28  1  0  0  0  0
 27 58  1  0  0  0  0
 27 59  1  0  0  0  0
 28 29  1  0  0  0  0
 28 30  1  0  0  0  0
 30 31  1  0  0  0  0
 30 60  1  0  0  0  0
 30 61  1  0  0  0  0
 31 32  2  0  0  0  0
 31 33  1  0  0  0  0
M  CHG  1  33  -1
M  END
$$$$
