61
-1 1 C26H29N2O4
C                     5.809037845281     5.985300418736     4.090735903927
C                     4.460498273504     5.471489085486     3.647630297925
C                     3.467846145384     6.371772611803     3.242123002621
C                     2.187311443873     5.954420266733     2.879837605400
C                     1.872573968433     4.589283385125     2.925950753134
C                     2.859399850172     3.669455296502     3.315730711233
C                     4.147460488806     4.088226090502     3.666889766008
N                     5.147871296770     3.155989796434     4.080503204205
C                     4.662058152932     1.890193114166     4.618975301453
C                     6.205683920022     2.937390463740     3.090258848268
C                     0.547228154423     4.095788075177     2.568949301489
N                     0.110914167496     2.864551226273     2.579662552328
C                    -1.217799600163     2.936283313888     2.160243770251
C                    -1.532476326059     4.241118235087     1.902596985650
O                    -0.402738851809     4.995418522731     2.167498440552
C                    -2.738385933436     4.955233186360     1.408917389738
C                    -2.052130437187     1.701095723181     1.999559358944
C                    -2.140044959700     1.217182621869     0.551359133984
O                    -2.906611278748     2.173676288147    -0.166788544517
C                    -3.095470264816     1.973683424150    -1.525521783905
C                    -3.840307255234     2.961685566285    -2.185018831234
C                    -4.092141054634     2.855738044418    -3.556564271117
C                    -3.601088215019     1.763546047813    -4.276817884413
C                    -2.852227265839     0.786605021741    -3.605876734307
C                    -2.593507510943     0.873010008051    -2.234335967058
C                    -2.441450794296    -0.305133046653    -4.574519139860
C                    -2.645676732013     0.363804188733    -5.955210296557
C                    -3.764964342797     1.413460148546    -5.744931942119
H                    -4.729763540648     0.907952357162    -5.888923881657
C                    -3.725354920568     2.572068425430    -6.738700454234
C                    -4.041226475688     2.154323457328    -8.219495206607
O                    -3.719021595416     3.009832686005    -9.087081926139
O                    -4.603147605790     1.030795258508    -8.371894824795
H                     6.523996733661     6.036528524596     3.259659284494
H                     5.720034535365     6.996161862766     4.499869269649
H                     6.240267010725     5.330287841345     4.852929689893
H                     3.700711450082     7.434740934534     3.231832088113
H                     1.435822087363     6.676160434065     2.576634118778
H                     2.593100023324     2.619015418862     3.327240310273
H                     5.495735440226     1.375516782555     5.108763799125
H                     3.886777343580     2.076722894991     5.366207660141
H                     4.252346978615     1.208925457093     3.853237546915
H                     7.033552439658     2.391159078094     3.555654139233
H                     5.847848770849     2.355687297767     2.223107863835
H                     6.591278218680     3.888213022519     2.721178064231
H                    -3.033475609388     5.758285702572     2.094146192238
H                    -2.555447805343     5.396582903001     0.422937207267
H                    -3.560464487080     4.247197745682     1.301373207932
H                    -1.607471240979     0.907909848357     2.608289885819
H                    -3.070171900489     1.870038309993     2.366426901632
H                    -1.134625447103     1.123873693330     0.119535919495
H                    -2.627728686768     0.232555593152     0.511863791779
H                    -4.208004468411     3.806610589276    -1.607877495615
H                    -4.662972311856     3.632109519752    -4.060628160147
H                    -2.009572301955     0.101253164373    -1.741649610312
H                    -1.418690483178    -0.664011050647    -4.406278453701
H                    -3.109253542535    -1.171607795528    -4.458772340864
H                    -1.724625603729     0.886073885227    -6.244948498630
H                    -2.904170755786    -0.329038785898    -6.757004069522
H                    -2.750855422894     3.075432361180    -6.706377844530
H                    -4.471615720481     3.330098380513    -6.461343379608
