56
-2 1 C25FH23O6S
C                     3.397646396218    -4.770469211678    -1.089153386976
C                     3.692073023708    -3.343006769549    -0.678168192065
C                     3.487282972501    -2.321812156212    -1.615556089780
C                     3.759942572778    -0.988867928969    -1.277658422283
C                     4.245843507115    -0.707549481371     0.009183605903
C                     4.437299028169    -1.716494314336     0.956137037880
C                     4.153956403655    -3.057343200248     0.622415054835
C                     4.309362124116    -4.170958195379     1.642548805451
C                     5.596336584190    -4.986068178381     1.580716263462
C                     5.575812361406    -6.372997090826     1.868340556039
C                     6.719820570255    -7.148634973085     1.895008986624
C                     8.039699115828    -6.608308384885     1.643797129199
C                     8.015383740504    -5.182711361218     1.372018635437
C                     6.837841481855    -4.415821333887     1.318091043165
S                     9.542533019504    -4.349000502922     1.064805599548
O                     9.245431702844    -2.937919815579     0.713735430669
O                    10.549675432555    -4.603090269439     2.115381221727
C                    10.174878433954    -5.102302746470    -0.454819806120
C                    10.890667574919    -6.301576852633    -0.393286370965
C                    11.383760651977    -6.862186792733    -1.575809372524
C                    11.140231145876    -6.206127799159    -2.778015030473
C                    10.423350963213    -5.016264083084    -2.857568960524
C                     9.934419198153    -4.459941399158    -1.671148605851
F                    11.629446941512    -6.755522029367    -3.936363984066
O                     9.086972799214    -7.327851879407     1.643013322498
C                     4.947870611534    -1.337081186507     2.332805050749
O                     3.604894756032     0.092517639273    -2.090248119443
C                     3.286372012503    -0.045073822525    -3.511393291656
C                     4.484047363184    -0.658339763228    -4.240062965769
C                     3.082409276947     1.406629243355    -3.949615544523
C                     1.918203522281    -0.813540231724    -3.765295544229
O                     0.940145186155    -0.385115975376    -3.103806351081
O                     1.964967859615    -1.731579415619    -4.632273895181
H                     2.547389510654    -5.183306325739    -0.529503649508
H                     3.148474485190    -4.822748094141    -2.152322019157
H                     4.255107537370    -5.424735712704    -0.897190263266
H                     3.095570951364    -2.569773817793    -2.595523734325
H                     4.467897028176     0.328780526252     0.253511354659
H                     4.205116536702    -3.746632734034     2.649299066439
H                     3.468526032264    -4.867694887677     1.540737501999
H                     4.611330929178    -6.847193445487     2.062606897100
H                     6.667508857638    -8.217138288353     2.097517072237
H                     6.916587734021    -3.363912777816     1.059027090243
H                    11.012473347141    -6.788196324953     0.567240054291
H                    11.937888033661    -7.796598100389    -1.572330783796
H                    10.253240678093    -4.545409053875    -3.821340813739
H                     9.373195311944    -3.530722245999    -1.678036095962
H                     4.177957373631    -1.476815265664     3.103590219233
H                     5.814203382164    -1.936769942847     2.629977515285
H                     5.247904416624    -0.284882281484     2.354140158232
H                     4.281580061259    -0.680532121917    -5.313663215386
H                     4.668956792806    -1.686601014328    -3.926356925505
H                     5.387278798156    -0.064134039514    -4.047048097061
H                     2.849192482162     1.440729650356    -5.019636783453
H                     3.985485202611     2.002535229322    -3.762016021384
H                     2.241053839997     1.826798208213    -3.393744243466
