
  -OEChem-12102412483D

 61 64  0     1  0  0  0  0  0999 V2000
    5.8090    5.9853    4.0907 C   0  0  0  0  0  0  0  0  0  0  0  0
    4.4605    5.4715    3.6476 C   0  0  0  0  0  0  0  0  0  0  0  0
    3.4678    6.3718    3.2421 C   0  0  0  0  0  0  0  0  0  0  0  0
    2.1873    5.9544    2.8798 C   0  0  0  0  0  0  0  0  0  0  0  0
    1.8726    4.5893    2.9260 C   0  0  0  0  0  0  0  0  0  0  0  0
    2.8594    3.6695    3.3157 C   0  0  0  0  0  0  0  0  0  0  0  0
    4.1475    4.0882    3.6669 C   0  0  0  0  0  0  0  0  0  0  0  0
    5.1479    3.1560    4.0805 N   0  0  0  0  0  0  0  0  0  0  0  0
    4.6621    1.8902    4.6190 C   0  0  0  0  0  0  0  0  0  0  0  0
    6.2057    2.9374    3.0903 C   0  0  0  0  0  0  0  0  0  0  0  0
    0.5472    4.0958    2.5689 C   0  0  0  0  0  0  0  0  0  0  0  0
    0.1109    2.8646    2.5797 N   0  0  0  0  0  0  0  0  0  0  0  0
   -1.2178    2.9363    2.1602 C   0  0  0  0  0  0  0  0  0  0  0  0
   -1.5325    4.2411    1.9026 C   0  0  0  0  0  0  0  0  0  0  0  0
   -0.4027    4.9954    2.1675 O   0  0  0  0  0  0  0  0  0  0  0  0
   -2.7384    4.9552    1.4089 C   0  0  0  0  0  0  0  0  0  0  0  0
   -2.0521    1.7011    1.9996 C   0  0  0  0  0  0  0  0  0  0  0  0
   -2.1400    1.2172    0.5514 C   0  0  0  0  0  0  0  0  0  0  0  0
   -2.9066    2.1737   -0.1668 O   0  0  0  0  0  0  0  0  0  0  0  0
   -3.0955    1.9737   -1.5255 C   0  0  0  0  0  0  0  0  0  0  0  0
   -3.8403    2.9617   -2.1850 C   0  0  0  0  0  0  0  0  0  0  0  0
   -4.0921    2.8557   -3.5566 C   0  0  0  0  0  0  0  0  0  0  0  0
   -3.6011    1.7635   -4.2768 C   0  0  0  0  0  0  0  0  0  0  0  0
   -2.8522    0.7866   -3.6059 C   0  0  0  0  0  0  0  0  0  0  0  0
   -2.5935    0.8730   -2.2343 C   0  0  0  0  0  0  0  0  0  0  0  0
   -2.4415   -0.3051   -4.5745 C   0  0  0  0  0  0  0  0  0  0  0  0
   -2.6457    0.3638   -5.9552 C   0  0  0  0  0  0  0  0  0  0  0  0
   -3.7650    1.4135   -5.7449 C   0  0  2  0  0  0  0  0  0  0  0  0
   -4.7298    0.9080   -5.8889 H   0  0  0  0  0  0  0  0  0  0  0  0
   -3.7254    2.5721   -6.7387 C   0  0  0  0  0  0  0  0  0  0  0  0
   -4.0412    2.1543   -8.2195 C   0  0  0  0  0  0  0  0  0  0  0  0
   -3.7190    3.0098   -9.0871 O   0  0  0  0  0  0  0  0  0  0  0  0
   -4.6031    1.0308   -8.3719 O   0  5  0  0  0  0  0  0  0  0  0  0
    6.5240    6.0365    3.2597 H   0  0  0  0  0  0  0  0  0  0  0  0
    5.7200    6.9962    4.4999 H   0  0  0  0  0  0  0  0  0  0  0  0
    6.2403    5.3303    4.8529 H   0  0  0  0  0  0  0  0  0  0  0  0
    3.7007    7.4347    3.2318 H   0  0  0  0  0  0  0  0  0  0  0  0
    1.4358    6.6762    2.5766 H   0  0  0  0  0  0  0  0  0  0  0  0
    2.5931    2.6190    3.3272 H   0  0  0  0  0  0  0  0  0  0  0  0
    5.4957    1.3755    5.1088 H   0  0  0  0  0  0  0  0  0  0  0  0
    3.8868    2.0767    5.3662 H   0  0  0  0  0  0  0  0  0  0  0  0
    4.2523    1.2089    3.8532 H   0  0  0  0  0  0  0  0  0  0  0  0
    7.0336    2.3912    3.5557 H   0  0  0  0  0  0  0  0  0  0  0  0
    5.8478    2.3557    2.2231 H   0  0  0  0  0  0  0  0  0  0  0  0
    6.5913    3.8882    2.7212 H   0  0  0  0  0  0  0  0  0  0  0  0
   -3.0335    5.7583    2.0941 H   0  0  0  0  0  0  0  0  0  0  0  0
   -2.5554    5.3966    0.4229 H   0  0  0  0  0  0  0  0  0  0  0  0
   -3.5605    4.2472    1.3014 H   0  0  0  0  0  0  0  0  0  0  0  0
   -1.6075    0.9079    2.6083 H   0  0  0  0  0  0  0  0  0  0  0  0
   -3.0702    1.8700    2.3664 H   0  0  0  0  0  0  0  0  0  0  0  0
   -1.1346    1.1239    0.1195 H   0  0  0  0  0  0  0  0  0  0  0  0
   -2.6277    0.2326    0.5119 H   0  0  0  0  0  0  0  0  0  0  0  0
   -4.2080    3.8066   -1.6079 H   0  0  0  0  0  0  0  0  0  0  0  0
   -4.6630    3.6321   -4.0606 H   0  0  0  0  0  0  0  0  0  0  0  0
   -2.0096    0.1013   -1.7416 H   0  0  0  0  0  0  0  0  0  0  0  0
   -1.4187   -0.6640   -4.4063 H   0  0  0  0  0  0  0  0  0  0  0  0
   -3.1093   -1.1716   -4.4588 H   0  0  0  0  0  0  0  0  0  0  0  0
   -1.7246    0.8861   -6.2449 H   0  0  0  0  0  0  0  0  0  0  0  0
   -2.9042   -0.3290   -6.7570 H   0  0  0  0  0  0  0  0  0  0  0  0
   -2.7509    3.0754   -6.7064 H   0  0  0  0  0  0  0  0  0  0  0  0
   -4.4716    3.3301   -6.4613 H   0  0  0  0  0  0  0  0  0  0  0  0
  1  2  1  0  0  0  0
  1 34  1  0  0  0  0
  1 35  1  0  0  0  0
  1 36  1  0  0  0  0
  2  3  2  0  0  0  0
  2  7  1  0  0  0  0
  3  4  1  0  0  0  0
  3 37  1  0  0  0  0
  4  5  2  0  0  0  0
  4 38  1  0  0  0  0
  5  6  1  0  0  0  0
  5 11  1  0  0  0  0
  6  7  2  0  0  0  0
  6 39  1  0  0  0  0
  7  8  1  0  0  0  0
  8  9  1  0  0  0  0
  8 10  1  0  0  0  0
  9 40  1  0  0  0  0
  9 41  1  0  0  0  0
  9 42  1  0  0  0  0
 10 43  1  0  0  0  0
 10 44  1  0  0  0  0
 10 45  1  0  0  0  0
 11 12  2  0  0  0  0
 11 15  1  0  0  0  0
 12 13  1  0  0  0  0
 13 14  2  0  0  0  0
 13 17  1  0  0  0  0
 14 15  1  0  0  0  0
 14 16  1  0  0  0  0
 16 46  1  0  0  0  0
 16 47  1  0  0  0  0
 16 48  1  0  0  0  0
 17 18  1  0  0  0  0
 17 49  1  0  0  0  0
 17 50  1  0  0  0  0
 18 19  1  0  0  0  0
 18 51  1  0  0  0  0
 18 52  1  0  0  0  0
 19 20  1  0  0  0  0
 20 21  1  0  0  0  0
 20 25  2  0  0  0  0
 21 22  2  0  0  0  0
 21 53  1  0  0  0  0
 22 23  1  0  0  0  0
 22 54  1  0  0  0  0
 23 24  2  0  0  0  0
 23 28  1  0  0  0  0
 24 25  1  0  0  0  0
 24 26  1  0  0  0  0
 25 55  1  0  0  0  0
 26 27  1  0  0  0  0
 26 56  1  0  0  0  0
 26 57  1  0  0  0  0
 27 28  1  0  0  0  0
 27 58  1  0  0  0  0
 27 59  1  0  0  0  0
 28 29  1  0  0  0  0
 28 30  1  0  0  0  0
 30 31  1  0  0  0  0
 30 60  1  0  0  0  0
 30 61  1  0  0  0  0
 31 32  2  0  0  0  0
 31 33  1  0  0  0  0
M  CHG  1  33  -1
M  END
$$$$
