
  -OEChem-12122420533D

 56 58  0     0  0  0  0  0  0999 V2000
    4.0753   -5.0927   -1.8365 C   0  0  0  0  0  0  0  0  0  0  0  0
    3.8373   -3.7847   -1.1039 C   0  0  0  0  0  0  0  0  0  0  0  0
    3.4790   -2.6650   -1.8684 C   0  0  0  0  0  0  0  0  0  0  0  0
    3.2249   -1.4367   -1.2521 C   0  0  0  0  0  0  0  0  0  0  0  0
    3.3073   -1.3446    0.1402 C   0  0  0  0  0  0  0  0  0  0  0  0
    3.6835   -2.4446    0.9184 C   0  0  0  0  0  0  0  0  0  0  0  0
    3.9647   -3.6826    0.3001 C   0  0  0  0  0  0  0  0  0  0  0  0
    4.4820   -4.8502    1.1360 C   0  0  0  0  0  0  0  0  0  0  0  0
    5.9542   -4.6938    1.4982 C   0  0  0  0  0  0  0  0  0  0  0  0
    6.3978   -4.4837    2.8253 C   0  0  0  0  0  0  0  0  0  0  0  0
    7.7111   -4.1609    3.1245 C   0  0  0  0  0  0  0  0  0  0  0  0
    8.7330   -3.9667    2.1095 C   0  0  0  0  0  0  0  0  0  0  0  0
    8.2633   -4.3369    0.7822 C   0  0  0  0  0  0  0  0  0  0  0  0
    6.9244   -4.6322    0.5018 C   0  0  0  0  0  0  0  0  0  0  0  0
    9.3144   -4.1770   -0.6392 S   0  0  0  0  0  0  0  0  0  0  0  0
   10.7090   -4.5740   -0.3666 O   0  0  0  0  0  0  0  0  0  0  0  0
    8.6272   -4.8059   -1.7955 O   0  0  0  0  0  0  0  0  0  0  0  0
    9.2716   -2.3987   -0.9403 C   0  0  0  0  0  0  0  0  0  0  0  0
    8.3777   -1.8921   -1.8886 C   0  0  0  0  0  0  0  0  0  0  0  0
    8.2687   -0.5116   -2.0869 C   0  0  0  0  0  0  0  0  0  0  0  0
    9.0755    0.3089   -1.3064 C   0  0  0  0  0  0  0  0  0  0  0  0
    9.9659   -0.1746   -0.3482 C   0  0  0  0  0  0  0  0  0  0  0  0
   10.0637   -1.5555   -0.1557 C   0  0  0  0  0  0  0  0  0  0  0  0
    8.9949    1.6693   -1.4712 F   0  0  0  0  0  0  0  0  0  0  0  0
    9.8807   -3.5026    2.3771 O   0  5  0  0  0  0  0  0  0  0  0  0
    3.8209   -2.2571    2.4141 C   0  0  0  0  0  0  0  0  0  0  0  0
    2.8245   -0.3323   -1.9716 O   0  0  0  0  0  0  0  0  0  0  0  0
    3.8602    0.4294   -2.6859 C   0  0  0  0  0  0  0  0  0  0  0  0
    4.8864    0.9496   -1.6800 C   0  0  0  0  0  0  0  0  0  0  0  0
    3.0686    1.5781   -3.3126 C   0  0  0  0  0  0  0  0  0  0  0  0
    4.5239   -0.3861   -3.8704 C   0  0  0  0  0  0  0  0  0  0  0  0
    3.7379   -1.0745   -4.5709 O   0  0  0  0  0  0  0  0  0  0  0  0
    5.7651   -0.1970   -4.0228 O   0  5  0  0  0  0  0  0  0  0  0  0
    3.3897   -5.8799   -1.4960 H   0  0  0  0  0  0  0  0  0  0  0  0
    3.9199   -4.9545   -2.9097 H   0  0  0  0  0  0  0  0  0  0  0  0
    5.0925   -5.4718   -1.7001 H   0  0  0  0  0  0  0  0  0  0  0  0
    3.4120   -2.7104   -2.9512 H   0  0  0  0  0  0  0  0  0  0  0  0
    3.1006   -0.3845    0.6076 H   0  0  0  0  0  0  0  0  0  0  0  0
    3.8996   -4.9334    2.0620 H   0  0  0  0  0  0  0  0  0  0  0  0
    4.3188   -5.7878    0.5944 H   0  0  0  0  0  0  0  0  0  0  0  0
    5.6712   -4.5505    3.6380 H   0  0  0  0  0  0  0  0  0  0  0  0
    8.0142   -3.9643    4.1519 H   0  0  0  0  0  0  0  0  0  0  0  0
    6.6511   -4.7836   -0.5365 H   0  0  0  0  0  0  0  0  0  0  0  0
    7.7575   -2.5689   -2.4670 H   0  0  0  0  0  0  0  0  0  0  0  0
    7.5455   -0.1191   -2.8029 H   0  0  0  0  0  0  0  0  0  0  0  0
   10.5525    0.5233    0.2434 H   0  0  0  0  0  0  0  0  0  0  0  0
   10.6985   -1.9861    0.6131 H   0  0  0  0  0  0  0  0  0  0  0  0
    3.2652   -3.0152    2.9807 H   0  0  0  0  0  0  0  0  0  0  0  0
    4.8674   -2.3328    2.7258 H   0  0  0  0  0  0  0  0  0  0  0  0
    3.4456   -1.2731    2.7136 H   0  0  0  0  0  0  0  0  0  0  0  0
    5.6063    1.5957   -2.1862 H   0  0  0  0  0  0  0  0  0  0  0  0
    5.4492    0.1303   -1.2273 H   0  0  0  0  0  0  0  0  0  0  0  0
    4.3857    1.5149   -0.8821 H   0  0  0  0  0  0  0  0  0  0  0  0
    3.7422    2.2225   -3.8875 H   0  0  0  0  0  0  0  0  0  0  0  0
    2.5737    2.1779   -2.5371 H   0  0  0  0  0  0  0  0  0  0  0  0
    2.3151    1.1632   -3.9874 H   0  0  0  0  0  0  0  0  0  0  0  0
  1  2  1  0  0  0  0
  1 34  1  0  0  0  0
  1 35  1  0  0  0  0
  1 36  1  0  0  0  0
  2  3  2  0  0  0  0
  2  7  1  0  0  0  0
  3  4  1  0  0  0  0
  3 37  1  0  0  0  0
  4  5  2  0  0  0  0
  4 27  1  0  0  0  0
  5  6  1  0  0  0  0
  5 38  1  0  0  0  0
  6  7  2  0  0  0  0
  6 26  1  0  0  0  0
  7  8  1  0  0  0  0
  8  9  1  0  0  0  0
  8 39  1  0  0  0  0
  8 40  1  0  0  0  0
  9 10  2  0  0  0  0
  9 14  1  0  0  0  0
 10 11  1  0  0  0  0
 10 41  1  0  0  0  0
 11 12  2  0  0  0  0
 11 42  1  0  0  0  0
 12 13  1  0  0  0  0
 12 25  1  0  0  0  0
 13 14  2  0  0  0  0
 13 15  1  0  0  0  0
 14 43  1  0  0  0  0
 15 16  2  0  0  0  0
 15 17  2  0  0  0  0
 15 18  1  0  0  0  0
 18 19  1  0  0  0  0
 18 23  2  0  0  0  0
 19 20  2  0  0  0  0
 19 44  1  0  0  0  0
 20 21  1  0  0  0  0
 20 45  1  0  0  0  0
 21 22  2  0  0  0  0
 21 24  1  0  0  0  0
 22 23  1  0  0  0  0
 22 46  1  0  0  0  0
 23 47  1  0  0  0  0
 26 48  1  0  0  0  0
 26 49  1  0  0  0  0
 26 50  1  0  0  0  0
 27 28  1  0  0  0  0
 28 29  1  0  0  0  0
 28 30  1  0  0  0  0
 28 31  1  0  0  0  0
 29 51  1  0  0  0  0
 29 52  1  0  0  0  0
 29 53  1  0  0  0  0
 30 54  1  0  0  0  0
 30 55  1  0  0  0  0
 30 56  1  0  0  0  0
 31 32  2  0  0  0  0
 31 33  1  0  0  0  0
M  CHG  2  25  -1  33  -1
M  END
$$$$
