61
-1 1 C26H29N2O4
C                     5.577273372059     6.278790503108     3.855352520056
C                     4.253865330910     5.648719153636     3.494006232464
C                     3.167533268108     6.457881073663     3.139956854098
C                     1.908968316309     5.930064922654     2.852540845671
C                     1.714642194098     4.543835407853     2.924411577715
C                     2.795637425354     3.714497220225     3.263555478710
C                     4.061103546494     4.244210090527     3.538701809703
N                     5.159244812598     3.404214512006     3.897885106613
C                     4.813759654085     2.106254872798     4.468017945169
C                     6.171853774406     3.265484784736     2.847274029562
C                     0.420062060479     3.934733070486     2.640950380464
N                     0.089891676742     2.672557738374     2.694696681915
C                    -1.252437952842     2.620138645117     2.325682812336
C                    -1.687989977504     3.889329046673     2.065140915091
O                    -0.618236930876     4.743015466238     2.262644360153
C                    -2.969302114422     4.493743598926     1.610440337889
C                    -1.989496689151     1.315402584805     2.223730816539
C                    -2.530815235907     1.024296327348     0.823525371764
O                    -1.437512549255     1.012680876990    -0.076385312165
C                    -1.722834915674     0.970703296784    -1.432022684951
C                    -2.997729762892     0.725897431125    -1.956631439968
C                    -3.187527064823     0.715578136844    -3.350574453463
C                    -2.117166136458     0.943163480670    -4.209160884661
C                    -0.840230750165     1.182424802144    -3.663874874102
C                    -0.633142312995     1.196500995324    -2.288940879701
C                     0.161962919323     1.393150544163    -4.781590960865
C                    -0.739471133502     1.712681222109    -5.998443381447
C                    -2.076241306686     0.978768502527    -5.726629517480
H                    -1.979659745189    -0.045974371010    -6.110775675074
C                    -3.283089896689     1.602967127983    -6.424253677002
C                    -3.239978723645     1.517804559804    -7.991177513271
O                    -4.065198774843     2.267803483408    -8.579306610407
O                    -2.411735424834     0.697102147371    -8.482355757301
H                     6.236274051164     6.381175868582     2.983767337520
H                     5.426799921875     7.282837076016     4.263366337304
H                     6.105456269334     5.670105130924     4.594577866619
H                     3.308831732686     7.536480068798     3.109627078144
H                     1.083798499904     6.582519430950     2.586010165265
H                     2.620887621374     2.645346456640     3.292347566234
H                     5.714886916422     1.667775106425     4.910186351873
H                     4.069916315591     2.233217344644     5.258482875444
H                     4.419632203569     1.386905766234     3.729726532882
H                     7.068806881613     2.795536886976     3.265530950156
H                     5.813814955508     2.647038088013     2.006259477987
H                     6.453288630407     4.241601072250     2.451095779225
H                    -3.210431860082     5.388123407318     2.194770990423
H                    -2.925789078912     4.781094634976     0.553301129679
H                    -3.784482356282     3.776645125373     1.730200580895
H                    -1.298973648578     0.520227543429     2.516560784091
H                    -2.834259275906     1.288562335672     2.924284289429
H                    -3.048520403243     0.053425387224     0.821865543942
H                    -3.258871350211     1.789709595712     0.522592589845
H                    -3.845674085836     0.546620283270    -1.303690130972
H                    -4.183274461576     0.540640453787    -3.751461047448
H                     0.343544512220     1.393595703908    -1.852294728238
H                     0.894776633090     2.177066758287    -4.556541651195
H                     0.725911523114     0.463894184554    -4.949360822185
H                    -0.932763031772     2.792797786357    -6.033301871845
H                    -0.319797293300     1.417117472169    -6.960704169136
H                    -3.397703981282     2.652688054882    -6.125400302224
H                    -4.203913028972     1.092736149531    -6.107732451020
