56
-2 1 C25FH23O6S
C                     4.054272593677    -4.830004648313    -2.023622422574
C                     3.607425546042    -3.601432174914    -1.261211372321
C                     2.940441424364    -2.578865045229    -1.944085706658
C                     2.497183277739    -1.429160069079    -1.278553885376
C                     2.760640216442    -1.289714703716     0.087124990115
C                     3.429051661351    -2.305028798258     0.786541800939
C                     3.842617119050    -3.482015526671     0.125712639943
C                     4.481902369820    -4.634276142993     0.886136587435
C                     5.946508903388    -4.928619107567     0.590499138985
C                     6.381943164954    -6.256828204212     0.366839565089
C                     7.703166751993    -6.579942861819     0.120149325842
C                     8.756910515798    -5.588185995704     0.076019068618
C                     8.270347818901    -4.245201583407     0.338602780255
C                     6.918065916474    -3.932786116401     0.561881362434
S                     9.426010224463    -2.907490358514     0.341124277913
O                     8.677851885033    -1.640943340003     0.532946243602
O                    10.590537697705    -3.164332322786     1.211962537400
C                    10.043803815964    -2.851301692564    -1.360092859687
C                    11.077740587900    -3.704390411761    -1.757439274009
C                    11.542471332832    -3.643976424537    -3.075217091891
C                    10.955463419327    -2.734963278739    -3.949244088580
C                     9.923255564590    -1.881928609702    -3.571090386637
C                     9.463467615270    -1.946741842874    -2.251815637554
F                    11.414649037978    -2.675757657092    -5.241131837345
O                     9.963768366402    -5.881930529646    -0.190447861810
C                     3.696157885475    -2.093673578779     2.265411681792
O                     1.872944291937    -0.454612797287    -2.019723005669
C                     0.445990611362    -0.182477151241    -1.808461307679
C                    -0.329023302173    -1.501851808982    -1.733070811627
C                     0.061840622525     0.597164432876    -3.069933543198
C                     0.111147333558     0.734884929245    -0.560485678708
O                     1.066785092740     1.249156969467     0.072999112486
O                    -1.133683120077     0.874828663121    -0.380878631196
H                     3.626821832894    -5.749179255998    -1.601751930728
H                     3.745574866456    -4.768572693473    -3.072214625066
H                     5.141564298184    -4.951104360550    -1.987797527586
H                     2.742274745630    -2.665099361306    -3.010420199711
H                     2.423874728879    -0.376066600565     0.568613031023
H                     4.356551247872    -4.465887340133     1.960558993226
H                     3.912908781006    -5.549689374940     0.672242042318
H                     5.635619848045    -7.054113397924     0.370973656212
H                     8.002132788600    -7.609504999840    -0.069469098316
H                     6.642033345948    -2.891124579588     0.704105696627
H                    11.466713815342    -4.421534331053    -1.044192538494
H                    12.337561525934    -4.295687084303    -3.426374643803
H                     9.494465556829    -1.191715735768    -4.291705184546
H                     8.663086994172    -1.300461530850    -1.905066925573
H                     3.121813976388    -2.790053954894     2.890510236597
H                     4.754492891304    -2.232861144880     2.513350345331
H                     3.411902403814    -1.079349431921     2.557198667521
H                    -1.393190147785    -1.274120597458    -1.648839791134
H                    -0.034618259820    -2.081615191221    -0.852903729428
H                    -0.144024981363    -2.115459894503    -2.625179200927
H                    -0.987159644389     0.895553782742    -3.006533911692
H                     0.224370565813    -0.014279111474    -3.967641717491
H                     0.681832855376     1.496719419760    -3.146033591804
