
  -OEChem-12102412483D

 56 58  0     0  0  0  0  0  0999 V2000
    4.0543   -4.8300   -2.0236 C   0  0  0  0  0  0  0  0  0  0  0  0
    3.6074   -3.6014   -1.2612 C   0  0  0  0  0  0  0  0  0  0  0  0
    2.9404   -2.5789   -1.9441 C   0  0  0  0  0  0  0  0  0  0  0  0
    2.4972   -1.4292   -1.2786 C   0  0  0  0  0  0  0  0  0  0  0  0
    2.7606   -1.2897    0.0871 C   0  0  0  0  0  0  0  0  0  0  0  0
    3.4291   -2.3050    0.7865 C   0  0  0  0  0  0  0  0  0  0  0  0
    3.8426   -3.4820    0.1257 C   0  0  0  0  0  0  0  0  0  0  0  0
    4.4819   -4.6343    0.8861 C   0  0  0  0  0  0  0  0  0  0  0  0
    5.9465   -4.9286    0.5905 C   0  0  0  0  0  0  0  0  0  0  0  0
    6.3819   -6.2568    0.3668 C   0  0  0  0  0  0  0  0  0  0  0  0
    7.7032   -6.5799    0.1201 C   0  0  0  0  0  0  0  0  0  0  0  0
    8.7569   -5.5882    0.0760 C   0  0  0  0  0  0  0  0  0  0  0  0
    8.2703   -4.2452    0.3386 C   0  0  0  0  0  0  0  0  0  0  0  0
    6.9181   -3.9328    0.5619 C   0  0  0  0  0  0  0  0  0  0  0  0
    9.4260   -2.9075    0.3411 S   0  0  0  0  0  0  0  0  0  0  0  0
    8.6779   -1.6409    0.5329 O   0  0  0  0  0  0  0  0  0  0  0  0
   10.5905   -3.1643    1.2120 O   0  0  0  0  0  0  0  0  0  0  0  0
   10.0438   -2.8513   -1.3601 C   0  0  0  0  0  0  0  0  0  0  0  0
   11.0777   -3.7044   -1.7574 C   0  0  0  0  0  0  0  0  0  0  0  0
   11.5425   -3.6440   -3.0752 C   0  0  0  0  0  0  0  0  0  0  0  0
   10.9555   -2.7350   -3.9492 C   0  0  0  0  0  0  0  0  0  0  0  0
    9.9233   -1.8819   -3.5711 C   0  0  0  0  0  0  0  0  0  0  0  0
    9.4635   -1.9467   -2.2518 C   0  0  0  0  0  0  0  0  0  0  0  0
   11.4146   -2.6758   -5.2411 F   0  0  0  0  0  0  0  0  0  0  0  0
    9.9638   -5.8819   -0.1904 O   0  5  0  0  0  0  0  0  0  0  0  0
    3.6962   -2.0937    2.2654 C   0  0  0  0  0  0  0  0  0  0  0  0
    1.8729   -0.4546   -2.0197 O   0  0  0  0  0  0  0  0  0  0  0  0
    0.4460   -0.1825   -1.8085 C   0  0  0  0  0  0  0  0  0  0  0  0
   -0.3290   -1.5019   -1.7331 C   0  0  0  0  0  0  0  0  0  0  0  0
    0.0618    0.5972   -3.0699 C   0  0  0  0  0  0  0  0  0  0  0  0
    0.1111    0.7349   -0.5605 C   0  0  0  0  0  0  0  0  0  0  0  0
    1.0668    1.2492    0.0730 O   0  0  0  0  0  0  0  0  0  0  0  0
   -1.1337    0.8748   -0.3809 O   0  5  0  0  0  0  0  0  0  0  0  0
    3.6268   -5.7492   -1.6018 H   0  0  0  0  0  0  0  0  0  0  0  0
    3.7456   -4.7686   -3.0722 H   0  0  0  0  0  0  0  0  0  0  0  0
    5.1416   -4.9511   -1.9878 H   0  0  0  0  0  0  0  0  0  0  0  0
    2.7423   -2.6651   -3.0104 H   0  0  0  0  0  0  0  0  0  0  0  0
    2.4239   -0.3761    0.5686 H   0  0  0  0  0  0  0  0  0  0  0  0
    4.3566   -4.4659    1.9606 H   0  0  0  0  0  0  0  0  0  0  0  0
    3.9129   -5.5497    0.6722 H   0  0  0  0  0  0  0  0  0  0  0  0
    5.6356   -7.0541    0.3710 H   0  0  0  0  0  0  0  0  0  0  0  0
    8.0021   -7.6095   -0.0695 H   0  0  0  0  0  0  0  0  0  0  0  0
    6.6420   -2.8911    0.7041 H   0  0  0  0  0  0  0  0  0  0  0  0
   11.4667   -4.4215   -1.0442 H   0  0  0  0  0  0  0  0  0  0  0  0
   12.3376   -4.2957   -3.4264 H   0  0  0  0  0  0  0  0  0  0  0  0
    9.4945   -1.1917   -4.2917 H   0  0  0  0  0  0  0  0  0  0  0  0
    8.6631   -1.3005   -1.9051 H   0  0  0  0  0  0  0  0  0  0  0  0
    3.1218   -2.7901    2.8905 H   0  0  0  0  0  0  0  0  0  0  0  0
    4.7545   -2.2329    2.5134 H   0  0  0  0  0  0  0  0  0  0  0  0
    3.4119   -1.0793    2.5572 H   0  0  0  0  0  0  0  0  0  0  0  0
   -1.3932   -1.2741   -1.6488 H   0  0  0  0  0  0  0  0  0  0  0  0
   -0.0346   -2.0816   -0.8529 H   0  0  0  0  0  0  0  0  0  0  0  0
   -0.1440   -2.1155   -2.6252 H   0  0  0  0  0  0  0  0  0  0  0  0
   -0.9872    0.8956   -3.0065 H   0  0  0  0  0  0  0  0  0  0  0  0
    0.2244   -0.0143   -3.9676 H   0  0  0  0  0  0  0  0  0  0  0  0
    0.6818    1.4967   -3.1460 H   0  0  0  0  0  0  0  0  0  0  0  0
  1  2  1  0  0  0  0
  1 34  1  0  0  0  0
  1 35  1  0  0  0  0
  1 36  1  0  0  0  0
  2  3  2  0  0  0  0
  2  7  1  0  0  0  0
  3  4  1  0  0  0  0
  3 37  1  0  0  0  0
  4  5  2  0  0  0  0
  4 27  1  0  0  0  0
  5  6  1  0  0  0  0
  5 38  1  0  0  0  0
  6  7  2  0  0  0  0
  6 26  1  0  0  0  0
  7  8  1  0  0  0  0
  8  9  1  0  0  0  0
  8 39  1  0  0  0  0
  8 40  1  0  0  0  0
  9 10  2  0  0  0  0
  9 14  1  0  0  0  0
 10 11  1  0  0  0  0
 10 41  1  0  0  0  0
 11 12  2  0  0  0  0
 11 42  1  0  0  0  0
 12 13  1  0  0  0  0
 12 25  1  0  0  0  0
 13 14  2  0  0  0  0
 13 15  1  0  0  0  0
 14 43  1  0  0  0  0
 15 16  2  0  0  0  0
 15 17  2  0  0  0  0
 15 18  1  0  0  0  0
 18 19  1  0  0  0  0
 18 23  2  0  0  0  0
 19 20  2  0  0  0  0
 19 44  1  0  0  0  0
 20 21  1  0  0  0  0
 20 45  1  0  0  0  0
 21 22  2  0  0  0  0
 21 24  1  0  0  0  0
 22 23  1  0  0  0  0
 22 46  1  0  0  0  0
 23 47  1  0  0  0  0
 26 48  1  0  0  0  0
 26 49  1  0  0  0  0
 26 50  1  0  0  0  0
 27 28  1  0  0  0  0
 28 29  1  0  0  0  0
 28 30  1  0  0  0  0
 28 31  1  0  0  0  0
 29 51  1  0  0  0  0
 29 52  1  0  0  0  0
 29 53  1  0  0  0  0
 30 54  1  0  0  0  0
 30 55  1  0  0  0  0
 30 56  1  0  0  0  0
 31 32  2  0  0  0  0
 31 33  1  0  0  0  0
M  CHG  2  25  -1  33  -1
M  END
$$$$
