
  -OEChem-12122420533D

 56 58  0     0  0  0  0  0  0999 V2000
    4.0792   -5.1186   -1.8274 C   0  0  0  0  0  0  0  0  0  0  0  0
    3.6983   -3.7888   -1.2052 C   0  0  0  0  0  0  0  0  0  0  0  0
    3.0722   -2.8231   -2.0041 C   0  0  0  0  0  0  0  0  0  0  0  0
    2.6790   -1.5879   -1.4773 C   0  0  0  0  0  0  0  0  0  0  0  0
    2.9537   -1.2991   -0.1358 C   0  0  0  0  0  0  0  0  0  0  0  0
    3.5857   -2.2508    0.6734 C   0  0  0  0  0  0  0  0  0  0  0  0
    3.9448   -3.5150    0.1549 C   0  0  0  0  0  0  0  0  0  0  0  0
    4.5580   -4.5651    1.0647 C   0  0  0  0  0  0  0  0  0  0  0  0
    6.0581   -4.4689    1.3168 C   0  0  0  0  0  0  0  0  0  0  0  0
    6.5882   -4.7945    2.5894 C   0  0  0  0  0  0  0  0  0  0  0  0
    7.9447   -4.7995    2.8555 C   0  0  0  0  0  0  0  0  0  0  0  0
    8.9418   -4.4868    1.8527 C   0  0  0  0  0  0  0  0  0  0  0  0
    8.3550   -4.1749    0.5622 C   0  0  0  0  0  0  0  0  0  0  0  0
    6.9709   -4.1434    0.3186 C   0  0  0  0  0  0  0  0  0  0  0  0
    9.4255   -3.7925   -0.7908 S   0  0  0  0  0  0  0  0  0  0  0  0
   10.4673   -4.8192   -0.9974 O   0  0  0  0  0  0  0  0  0  0  0  0
    8.5903   -3.4065   -1.9553 O   0  0  0  0  0  0  0  0  0  0  0  0
   10.2769   -2.2788   -0.2816 C   0  0  0  0  0  0  0  0  0  0  0  0
    9.7777   -1.0507   -0.7200 C   0  0  0  0  0  0  0  0  0  0  0  0
   10.4227    0.1328   -0.3470 C   0  0  0  0  0  0  0  0  0  0  0  0
   11.5529    0.0383    0.4590 C   0  0  0  0  0  0  0  0  0  0  0  0
   12.0604   -1.1761    0.9091 C   0  0  0  0  0  0  0  0  0  0  0  0
   11.4097   -2.3557    0.5341 C   0  0  0  0  0  0  0  0  0  0  0  0
   12.1954    1.1940    0.8248 F   0  0  0  0  0  0  0  0  0  0  0  0
   10.1868   -4.4707    2.1046 O   0  5  0  0  0  0  0  0  0  0  0  0
    3.8829   -1.9034    2.1172 C   0  0  0  0  0  0  0  0  0  0  0  0
    2.0966   -0.6769   -2.3261 O   0  0  0  0  0  0  0  0  0  0  0  0
    0.6738   -0.3507   -2.1738 C   0  0  0  0  0  0  0  0  0  0  0  0
   -0.1384   -1.6368   -1.9917 C   0  0  0  0  0  0  0  0  0  0  0  0
    0.3360    0.3159   -3.5110 C   0  0  0  0  0  0  0  0  0  0  0  0
    0.3405    0.6894   -1.0254 C   0  0  0  0  0  0  0  0  0  0  0  0
    1.2979    1.2471   -0.4325 O   0  0  0  0  0  0  0  0  0  0  0  0
   -0.9035    0.8684   -0.8778 O   0  5  0  0  0  0  0  0  0  0  0  0
    3.4563   -5.9394   -1.4468 H   0  0  0  0  0  0  0  0  0  0  0  0
    3.9488   -5.0835   -2.9134 H   0  0  0  0  0  0  0  0  0  0  0  0
    5.1215   -5.3854   -1.6263 H   0  0  0  0  0  0  0  0  0  0  0  0
    2.8724   -3.0210   -3.0550 H   0  0  0  0  0  0  0  0  0  0  0  0
    2.6522   -0.3240    0.2365 H   0  0  0  0  0  0  0  0  0  0  0  0
    4.0535   -4.5282    2.0376 H   0  0  0  0  0  0  0  0  0  0  0  0
    4.3275   -5.5597    0.6622 H   0  0  0  0  0  0  0  0  0  0  0  0
    5.8911   -5.0381    3.3941 H   0  0  0  0  0  0  0  0  0  0  0  0
    8.3193   -5.0335    3.8506 H   0  0  0  0  0  0  0  0  0  0  0  0
    6.6271   -3.8518   -0.6696 H   0  0  0  0  0  0  0  0  0  0  0  0
    8.8946   -1.0320   -1.3511 H   0  0  0  0  0  0  0  0  0  0  0  0
   10.0609    1.1054   -0.6672 H   0  0  0  0  0  0  0  0  0  0  0  0
   12.9386   -1.1916    1.5484 H   0  0  0  0  0  0  0  0  0  0  0  0
   11.7338   -3.3271    0.8883 H   0  0  0  0  0  0  0  0  0  0  0  0
    3.2948   -2.5191    2.8116 H   0  0  0  0  0  0  0  0  0  0  0  0
    4.9383   -2.0703    2.3589 H   0  0  0  0  0  0  0  0  0  0  0  0
    3.6397   -0.8565    2.3167 H   0  0  0  0  0  0  0  0  0  0  0  0
   -1.1975   -1.3755   -1.9550 H   0  0  0  0  0  0  0  0  0  0  0  0
    0.1210   -2.1366   -1.0534 H   0  0  0  0  0  0  0  0  0  0  0  0
    0.0488   -2.3377   -2.8165 H   0  0  0  0  0  0  0  0  0  0  0  0
   -0.7053    0.6463   -3.4991 H   0  0  0  0  0  0  0  0  0  0  0  0
    0.4985   -0.3816   -4.3436 H   0  0  0  0  0  0  0  0  0  0  0  0
    0.9824    1.1876   -3.6577 H   0  0  0  0  0  0  0  0  0  0  0  0
  1  2  1  0  0  0  0
  1 34  1  0  0  0  0
  1 35  1  0  0  0  0
  1 36  1  0  0  0  0
  2  3  2  0  0  0  0
  2  7  1  0  0  0  0
  3  4  1  0  0  0  0
  3 37  1  0  0  0  0
  4  5  2  0  0  0  0
  4 27  1  0  0  0  0
  5  6  1  0  0  0  0
  5 38  1  0  0  0  0
  6  7  2  0  0  0  0
  6 26  1  0  0  0  0
  7  8  1  0  0  0  0
  8  9  1  0  0  0  0
  8 39  1  0  0  0  0
  8 40  1  0  0  0  0
  9 10  2  0  0  0  0
  9 14  1  0  0  0  0
 10 11  1  0  0  0  0
 10 41  1  0  0  0  0
 11 12  2  0  0  0  0
 11 42  1  0  0  0  0
 12 13  1  0  0  0  0
 12 25  1  0  0  0  0
 13 14  2  0  0  0  0
 13 15  1  0  0  0  0
 14 43  1  0  0  0  0
 15 16  2  0  0  0  0
 15 17  2  0  0  0  0
 15 18  1  0  0  0  0
 18 19  1  0  0  0  0
 18 23  2  0  0  0  0
 19 20  2  0  0  0  0
 19 44  1  0  0  0  0
 20 21  1  0  0  0  0
 20 45  1  0  0  0  0
 21 22  2  0  0  0  0
 21 24  1  0  0  0  0
 22 23  1  0  0  0  0
 22 46  1  0  0  0  0
 23 47  1  0  0  0  0
 26 48  1  0  0  0  0
 26 49  1  0  0  0  0
 26 50  1  0  0  0  0
 27 28  1  0  0  0  0
 28 29  1  0  0  0  0
 28 30  1  0  0  0  0
 28 31  1  0  0  0  0
 29 51  1  0  0  0  0
 29 52  1  0  0  0  0
 29 53  1  0  0  0  0
 30 54  1  0  0  0  0
 30 55  1  0  0  0  0
 30 56  1  0  0  0  0
 31 32  2  0  0  0  0
 31 33  1  0  0  0  0
M  CHG  2  25  -1  33  -1
M  END
$$$$
