56
-2 1 C25FH23O6S
C                     4.079184817394    -5.118591418985    -1.827360644212
C                     3.698295041726    -3.788796245946    -1.205177670626
C                     3.072195490018    -2.823098394064    -2.004116701875
C                     2.679001820316    -1.587924090997    -1.477289016854
C                     2.953749855497    -1.299078764340    -0.135797984979
C                     3.585679998131    -2.250826700599     0.673418027542
C                     3.944765317881    -3.514955273421     0.154855884172
C                     4.557993724045    -4.565087688519     1.064650222536
C                     6.058059988575    -4.468864549329     1.316776249467
C                     6.588219193394    -4.794506081036     2.589401011120
C                     7.944698624708    -4.799484146309     2.855453272994
C                     8.941783596237    -4.486823315704     1.852688600128
C                     8.355042837848    -4.174926960958     0.562176156475
C                     6.970895809999    -4.143361191084     0.318552784920
S                     9.425474898213    -3.792470746661    -0.790813404052
O                    10.467262410953    -4.819181677871    -0.997368488803
O                     8.590314321906    -3.406487555672    -1.955286784801
C                    10.276933164214    -2.278837484430    -0.281598488178
C                     9.777655910601    -1.050713742722    -0.720039153647
C                    10.422737281694     0.132781045158    -0.347024238680
C                    11.552919169549     0.038317420194     0.459032771106
C                    12.060444618385    -1.176100086705     0.909088013790
C                    11.409661299346    -2.355741697185     0.534110973227
F                    12.195384886483     1.194049020968     0.824774192939
O                    10.186775507131    -4.470719151408     2.104591695284
C                     3.882883419534    -1.903419004237     2.117160580098
O                     2.096566066705    -0.676949311737    -2.326068132722
C                     0.673841099430    -0.350716985425    -2.173776302640
C                    -0.138394938016    -1.636794543046    -1.991704966818
C                     0.335979738782     0.315920091254    -3.511022169095
C                     0.340516771892     0.689361882894    -1.025448959981
O                     1.297905144538     1.247144937169    -0.432498603363
O                    -0.903505056632     0.868365885349    -0.877847788445
H                     3.456311764975    -5.939432666350    -1.446790904337
H                     3.948787223435    -5.083509123669    -2.913352165603
H                     5.121474953232    -5.385396049141    -1.626258899953
H                     2.872419408757    -3.021048591693    -3.054992896709
H                     2.652208329281    -0.324031345998     0.236508795629
H                     4.053542032788    -4.528158067311     2.037616884334
H                     4.327526708675    -5.559700275327     0.662223161939
H                     5.891105959761    -5.038051086738     3.394061770960
H                     8.319338896895    -5.033501496253     3.850567599174
H                     6.627054228277    -3.851831380188    -0.669588181564
H                     8.894600520976    -1.032042714405    -1.351138408684
H                    10.060948961794     1.105409107626    -0.667229469400
H                    12.938642992024    -1.191575694311     1.548395521754
H                    11.733787135227    -3.327075942540     0.888321152671
H                     3.294765371618    -2.519124256086     2.811578603070
H                     4.938271723231    -2.070300948531     2.358853994740
H                     3.639672605116    -0.856455969040     2.316686434623
H                    -1.197519889001    -1.375516089333    -1.954968564085
H                     0.121047540656    -2.136612959733    -1.053406212246
H                     0.048844093732    -2.337686996273    -2.816518604626
H                    -0.705331646763     0.646261960158    -3.499070823503
H                     0.498516820670    -0.381584648847    -4.343617204324
H                     0.982447194326     1.187637621010    -3.657693375184
