56
-2 1 C25FH23O6S
C                     4.075250178453    -5.092656957192    -1.836508885201
C                     3.837301724472    -3.784732053840    -1.103853104372
C                     3.479046149297    -2.664955435688    -1.868396500654
C                     3.224878096303    -1.436716052884    -1.252096935172
C                     3.307280534361    -1.344640281874     0.140225610701
C                     3.683529537019    -2.444584385942     0.918385091162
C                     3.964707313439    -3.682640392302     0.300114224151
C                     4.481989541182    -4.850180524323     1.135951872116
C                     5.954243918427    -4.693814532437     1.498176837299
C                     6.397817041912    -4.483670499050     2.825269354154
C                     7.711086058288    -4.160901436495     3.124526618147
C                     8.732969035924    -3.966722700721     2.109497411449
C                     8.263343205999    -4.336924779518     0.782216089457
C                     6.924404268809    -4.632199402905     0.501780886249
S                     9.314404798069    -4.176991429426    -0.639243197057
O                    10.709048288729    -4.574027624191    -0.366595646145
O                     8.627199301724    -4.805856768160    -1.795495270077
C                     9.271625773685    -2.398737917063    -0.940251259727
C                     8.377731839932    -1.892092220048    -1.888648149549
C                     8.268718746858    -0.511638192950    -2.086902581740
C                     9.075536020250     0.308916796003    -1.306350220142
C                     9.965885842552    -0.174568640162    -0.348164075808
C                    10.063731296191    -1.555531862739    -0.155697080141
F                     8.994863959920     1.669303550130    -1.471224122134
O                     9.880703520187    -3.502646590334     2.377127653306
C                     3.820871909812    -2.257138313610     2.414104450662
O                     2.824480927736    -0.332313472064    -1.971640403234
C                     3.860189130969     0.429425078623    -2.685938873164
C                     4.886438915990     0.949647118608    -1.679998147473
C                     3.068648573928     1.578119220465    -3.312585038471
C                     4.523897111243    -0.386072912985    -3.870413824240
O                     3.737883037569    -1.074487902054    -4.570870584703
O                     5.765139150712    -0.196962795289    -4.022809013215
H                     3.389699752628    -5.879902442111    -1.495991552382
H                     3.919880595504    -4.954506843012    -2.909656720054
H                     5.092473644914    -5.471839009208    -1.700146157011
H                     3.411992887825    -2.710436364825    -2.951247963854
H                     3.100585868537    -0.384517359532     0.607569818998
H                     3.899553988658    -4.933433154363     2.062008106628
H                     4.318770651500    -5.787755597309     0.594405075353
H                     5.671162945585    -4.550468077969     3.638034690521
H                     8.014186736362    -3.964258481205     4.151919616447
H                     6.651064061971    -4.783640014402    -0.536521174334
H                     7.757479722861    -2.568880942377    -2.466998935558
H                     7.545527845494    -0.119122669136    -2.802861953722
H                    10.552517177678     0.523335374728     0.243351623182
H                    10.698455076448    -1.986108637351     0.613124465176
H                     3.265152445572    -3.015198352417     2.980684705640
H                     4.867408840935    -2.332828731429     2.725842861887
H                     3.445570938711    -1.273100756554     2.713564188439
H                     5.606344521185     1.595718834267    -2.186160430522
H                     5.449216598784     0.130252139018    -1.227253054692
H                     4.385677653682     1.514911426282    -0.882139526751
H                     3.742197604580     2.222468649515    -3.887487314184
H                     2.573692438539     2.177943329753    -2.537079043048
H                     2.315059177657     1.163210991470    -3.987365649705
