17   
torsion grid (-165,)
C       -0.5188708193   -0.6965780691    0.9782048470
C        1.5835454035   -1.1937837823   -1.3693882446
C       -0.9844527996   -0.2171965858    3.2418535339
C       -0.6277512243   -0.1873579421   -0.4476601625
C        0.7389230882    0.0318998305   -1.0990138224
O       -0.0266101623   -1.7621125333    1.2994066343
O       -1.0517655497    0.1784087652    1.8531934485
F        1.4536748221    0.9084458720   -0.2929808279
F        0.5213587154    0.7102131269   -2.2876155308
H        1.5805534679   -1.8475228584   -0.4961602036
H        1.1804049394   -1.7383550642   -2.2261233752
H        2.6088903041   -0.8796891024   -1.5770524284
H       -1.4565206912    0.5934391829    3.7957705184
H        0.0567220372   -0.3406102369    3.5473730171
H       -1.5206302351   -1.1564017677    3.3947443652
H       -1.1762090457   -0.9285487646   -1.0355089717
H       -1.1696791108    0.7586389943   -0.4724437035
17   
torsion grid (-150,)
C       -0.5577681124   -0.6964414027    0.9749714710
C        1.5626775424   -1.1841244800   -1.3472384480
C       -0.9469482892   -0.1619864654    3.2404891430
C       -0.6782614943   -0.2069940460   -0.4567139444
C        0.6850525707    0.0315098234   -1.1096413235
O       -0.0968029979   -1.7743707832    1.3021116762
O       -1.0371339794    0.2112761392    1.8469853276
F        1.3708718956    0.9419335861   -0.3148816998
F        0.4584937611    0.6831733895   -2.3103422992
H        1.3821133480   -1.9336922018   -0.5752017694
H        1.3422345236   -1.6138151047   -2.3263974838
H        2.6116183161   -0.8853234538   -1.2941790647
H       -1.3753864498    0.6745102397    3.7913846380
H        0.0969874855   -0.3169792779    3.5212269671
H       -1.5115267206   -1.0787056884    3.4244925456
H       -1.2097431775   -0.9667956836   -1.0361413072
H       -1.2376516135    0.7284225435   -0.4926027838
17   
torsion grid (-135,)
C       -0.7450993800   -0.6948986968    0.6834570594
C        1.5961735387   -1.3381930471   -1.3477173226
C       -1.3627017279   -0.4776601676    2.9508252148
C       -0.4831094008    0.0518863492   -0.6117083548
C        0.9925941951    0.0205662566   -1.0146756627
O       -0.6460949599   -1.9003628658    0.8199541614
O       -1.1114415728    0.1448534856    1.6707422694
F        1.7152318296    0.6085725010    0.0156260586
F        1.1359341625    0.8720731281   -2.0985237265
H        0.9593028402   -2.1425639403   -0.9776449799
H        1.7118071988   -1.4334728192   -2.4288688173
H        2.5697049906   -1.4302492952   -0.8625796855
H       -1.6438744463    0.3368186848    3.6174008488
H       -0.4604993969   -0.9778910610    3.3092620504
H       -2.1713930488   -1.2068340655    2.8652454800
H       -1.0648862396   -0.4229318787   -1.4061579800
H       -0.7844484196    1.0956578338   -0.5176120028
17   
torsion grid (-120,)
C       -0.7321877309   -0.6961200534    0.6795284492
C        1.5971482095   -1.3504375163   -1.3327179985
C       -1.3347408186   -0.4863353912    2.9519569387
C       -0.4818409578    0.0535798326   -0.6161747825
C        0.9892679247    0.0169887147   -1.0329364730
O       -0.6253615903   -1.9011914090    0.8122064510
O       -1.0948723325    0.1401448511    1.6716520223
F        1.7276654936    0.6520841331   -0.0455957705
F        1.0996687530    0.8275651726   -2.1539931034
H        0.8653267185   -2.1466783059   -1.1963240480
H        1.9650004499   -1.3624508107   -2.3604234185
H        2.4332429774   -1.5339952975   -0.6558341595
H       -1.6147026480    0.3254142564    3.6223738074
H       -0.4281268431   -0.9837473804    3.3031656143
H       -2.1409764941   -1.2186676248    2.8702775725
H       -1.0696734679   -0.4193191511   -1.4068777648
H       -0.7798219189    1.0979407267   -0.5182737217
17   
torsion grid (-105,)
C       -0.7160220864   -0.6800999204    0.7211248004
C        1.5661363770   -1.3353266731   -1.3217515091
C       -1.3540602051   -0.4865526694    2.9856484474
C       -0.5010802294    0.0716165033   -0.5798858515
C        0.9557940897    0.0319547903   -1.0406512203
O       -0.5418482805   -1.8755681632    0.8657455642
O       -1.1340275274    0.1429562824    1.7032222572
F        1.7277809607    0.7081972975   -0.1097904477
F        1.0121373550    0.8012891910   -2.1961572710
H        0.8003539799   -2.1038100342   -1.4220203101
H        2.1488938217   -1.2736682306   -2.2436806660
H        2.2406235421   -1.6105451795   -0.5097112272
H       -1.6850275132    0.3135240712    3.6468190595
H       -0.4259627440   -0.9317787614    3.3505130971
H       -2.1185662717   -1.2620160722    2.9009190506
H       -1.1120142383   -0.3988235570   -1.3543682998
H       -0.7962971478    1.1158525258   -0.4729256290
17   
torsion grid (-90,)
C       -0.6192916663   -0.6380121645    0.7837524397
C        1.5902537770   -1.3406107257   -1.3430001038
C       -1.3835610673   -0.4561477203    3.0101766952
C       -0.4212158781    0.1013414745   -0.5268284416
C        1.0190928228    0.0305354065   -1.0304853609
O       -0.3500854104   -1.8103032845    0.9649891695
O       -1.1512056249    0.1661951739    1.7262659280
F        1.8392807578    0.6796198135   -0.1223492411
F        1.0550023712    0.8047605838   -2.1841993853
H        0.8157391190   -2.0239776016   -1.6922841536
H        2.3520454019   -1.2246724778   -2.1180111100
H        2.0634659057   -1.7563521957   -0.4532195196
H       -1.8131919937    0.3252305364    3.6360585091
H       -0.4416469586   -0.8151853764    3.4303501207
H       -2.0758283531   -1.2944707484    2.9053151838
H       -1.0661285317   -0.3594301039   -1.2798944229
H       -0.6969205157    1.1509964445   -0.4199750529
17   
torsion grid (-75,)
C       -0.6042917501   -0.6516801490    0.7893623001
C        1.5841655012   -1.3427465401   -1.3903663926
C       -1.3712645149   -0.4438419825    3.0126179362
C       -0.4319689037    0.0663514360   -0.5366935433
C        1.0024249775    0.0143413234   -1.0600039647
O       -0.3044338808   -1.8122984242    0.9957334501
O       -1.1564484913    0.1576780383    1.7158111137
F        1.8262741992    0.6597057769   -0.1529292454
F        1.0210548091    0.7984459250   -2.2075651066
H        0.8728955519   -1.9367602066   -1.9670874962
H        2.4923035256   -1.1921769285   -1.9794683765
H        1.8352113912   -1.8743588585   -0.4726673770
H       -1.8209978728    0.3387136936    3.6227052334
H       -0.4198289513   -0.7689585585    3.4388985385
H       -2.0411386687   -1.3022098483    2.9260508437
H       -1.0810129325   -0.4164572215   -1.2724333924
H       -0.7241203526    1.1129430641   -0.4438627800
17   
torsion grid (-60,)
C       -0.6244868105   -0.6512360894    0.8075639670
C        1.6110650370   -1.3092017520   -1.3529388916
C       -1.3321984389   -0.3969199214    3.0452397231
C       -0.4451585629    0.0511157945   -0.5260302176
C        1.0028001262    0.0324413033   -1.0162391130
O       -0.3671181409   -1.8219075634    1.0163465427
O       -1.1255343347    0.1850484132    1.7382882188
F        1.7886204692    0.6640365419   -0.0633029674
F        1.0519054406    0.8434574502   -2.1407730215
H        1.0349303690   -1.7875611062   -2.1483559187
H        2.6365092332   -1.1523789804   -1.6959342198
H        1.6052103076   -1.9553784941   -0.4751602155
H       -1.7379918859    0.4071668604    3.6580999887
H       -0.3837051889   -0.7536943096    3.4523010479
H       -2.0354212991   -1.2302716185    2.9820599167
H       -1.0654603578   -0.4594271494   -1.2677279425
H       -0.7643725638    1.0913426377   -0.4531139510
17   
torsion grid (-45,)
C       -0.6328816679   -0.6615914458    0.7939797112
C        1.6212034548   -1.2977066526   -1.3671634312
C       -1.2867890416   -0.3655467552    3.0424111037
C       -0.4630436255    0.0213418988   -0.5509784562
C        0.9912947880    0.0342256979   -1.0247582489
O       -0.3916481058   -1.8340998503    1.0129900037
O       -1.1014250447    0.1944996367    1.7227563729
F        1.7486828835    0.6588835409   -0.0423290337
F        1.0536734454    0.8674763913   -2.1302931964
H        1.2184383931   -1.6481228835   -2.3211051516
H        2.7019083545   -1.1720936375   -1.4603433591
H        1.3841331679   -2.0367064413   -0.6012891880
H       -1.6673248422    0.4530932176    3.6521773530
H       -0.3343202872   -0.7297930355    3.4332303826
H       -2.0028364811   -1.1895585782    3.0071749619
H       -1.0621609416   -0.5200307210   -1.2883403758
H       -0.8102681994    1.0537825235   -0.4989383991
17   
torsion grid (-30,)
C       -0.6525859301   -0.6827553366    0.7650343945
C        1.6447073910   -1.2948601836   -1.3387806182
C       -1.2201670275   -0.3678014562    3.0338882796
C       -0.4806665199   -0.0017083758   -0.5803685377
C        0.9799117475    0.0351315857   -1.0349565980
O       -0.4673812208   -1.8682220714    0.9697262854
O       -1.0484638629    0.1898590872    1.7114641381
F        1.7040529669    0.6955182931   -0.0501124893
F        1.0435070233    0.8519737362   -2.1519203541
H        1.4667184153   -1.5441460645   -2.3881984816
H        2.7200884122   -1.2155053839   -1.1705916732
H        1.2162694803   -2.0886220425   -0.7260601975
H       -1.5379464907    0.4656509824    3.6592914534
H       -0.2758625832   -0.7832275094    3.3921579117
H       -1.9787871078   -1.1534521499    3.0181483761
H       -1.0584264848   -0.5582680344   -1.3231903774
H       -0.8453016042    1.0251129185   -0.5366549106
17   
torsion grid (-15,)
C       -0.6637055626   -0.6774114842    0.7671842016
C        1.6203065597   -1.2956364593   -1.3344032083
C       -1.1928472487   -0.3530215365    3.0440743332
C       -0.5147258002   -0.0025644875   -0.5840945589
C        0.9394047158    0.0389383162   -1.0580113877
O       -0.4723926666   -1.8615641792    0.9736591454
O       -1.0447051519    0.1989745714    1.7164540094
F        1.6667859965    0.7413887455   -0.1060324965
F        0.9713175097    0.8245054675   -2.1993362350
H        1.6827916773   -1.4432541349   -2.4150926767
H        2.6298005347   -1.2872631392   -0.9205057450
H        1.0522485159   -2.1208955129   -0.9044945384
H       -1.5015391618    0.4826594088    3.6710580529
H       -0.2418579263   -0.7651662546    3.3882094754
H       -1.9501241875   -1.1401270639    3.0447657953
H       -1.0974847313   -0.5676106884   -1.3163866216
H       -0.8845848907    1.0223922133   -0.5417856843
17   
torsion grid (0,)
C       -0.6294884997   -0.6889561716    0.7556443558
C        1.6543281824   -1.3138527504   -1.3171344344
C       -1.1561956974   -0.3845109496    3.0362227073
C       -0.4808877037   -0.0026588634   -0.5899228078
C        0.9714064202    0.0281448182   -1.0684708483
O       -0.4369893494   -1.8745966470    0.9515436204
O       -1.0086739533    0.1793424173    1.7135254747
F        1.7063839855    0.7659416667   -0.1526696557
F        0.9830372433    0.7758985921   -2.2376594479
H        1.9872261993   -1.3610792714   -2.3556135159
H        2.5224465242   -1.4075305924   -0.6624516872
H        0.9801132595   -2.1447499888   -1.1091995212
H       -1.4638993979    0.4456268192    3.6710196741
H       -0.2053055335   -0.8004533795    3.3760975885
H       -1.9139707869   -1.1711108630    3.0304092273
H       -1.0683104336   -0.5570303065   -1.3261320242
H       -0.8418378476    1.0249866761   -0.5377958556
17   
torsion grid (15,)
C       -0.5957139974   -0.6599157505    0.8128342952
C        1.6181535889   -1.2909656689   -1.3195063855
C       -1.1951467909   -0.3891313054    3.0801201497
C       -0.4935083103    0.0260341554   -0.5373988519
C        0.9368532915    0.0490660756   -1.0749926192
O       -0.3002521653   -1.8212997326    1.0232847391
O       -1.0684722788    0.1782410526    1.7566492929
F        1.7105594348    0.8222912162   -0.2243085402
F        0.8837570176    0.7556711620   -2.2704141179
H        2.1611648138   -1.2540280819   -2.2653692956
H        2.3211677089   -1.4900353031   -0.5086987729
H        0.8955390099   -2.1071259423   -1.3219306024
H       -1.5878215547    0.4144579183    3.7021054262
H       -0.2193274584   -0.7187189540    3.4432022418
H       -1.8812226881   -1.2388532700    3.0640781140
H       -1.1129007546   -0.5238072297   -1.2506751348
H       -0.8498168927    1.0545100576   -0.4719108453
17   
torsion grid (30,)
C       -0.5135156467   -0.6327748175    0.8306941511
C        1.6300665373   -1.3184959562   -1.3718122546
C       -1.2028123067   -0.3720948612    3.0737258426
C       -0.4305059645    0.0355035853   -0.5294921565
C        0.9837595619    0.0284725357   -1.1064405427
O       -0.1425634455   -1.7662695802    1.0700291636
O       -1.0719110241    0.1846684685    1.7460365352
F        1.8019121346    0.7837108366   -0.2824391173
F        0.9082476505    0.7335646477   -2.3023851068
H        2.3530804398   -1.2170966541   -2.1833633057
H        2.1374595856   -1.6589345699   -0.4681396492
H        0.8782220131   -2.0702667228   -1.6162836322
H       -1.6702261736    0.4107057771    3.6700443873
H       -0.2191572210   -0.6283263037    3.4729852625
H       -1.8278882684   -1.2674674642    3.0493423060
H       -1.0802352800   -0.5107342079   -1.2186462312
H       -0.7712989483    1.0696055909   -0.4688989877
17   
torsion grid (45,)
C       -0.4967087333   -0.6306316293    0.8616685947
C        1.6389980503   -1.3072255986   -1.3769131975
C       -1.1955222412   -0.3457036523    3.0988189574
C       -0.4269035170    0.0175097728   -0.5090133561
C        0.9842732887    0.0268746945   -1.0942853296
O       -0.1058926848   -1.7529097546    1.1213604782
O       -1.0721357524    0.1913504654    1.7623385748
F        1.8010477607    0.7742593698   -0.2618363337
F        0.9025971858    0.7448001976   -2.2818388231
H        2.5144026240   -1.1457122769   -2.0096123988
H        1.9380309959   -1.7750663193   -0.4386349898
H        0.9353506329   -1.9778661674   -1.8743057676
H       -1.6785110479    0.4381289342    3.6812075081
H       -0.2081320251   -0.5770794544    3.5039708479
H       -1.8039595262   -1.2527311293    3.0881476385
H       -1.0737526644   -0.5470802849   -1.1862009859
H       -0.7831433925    1.0471498162   -0.4614201923
17   
torsion grid (60,)
C       -0.5354788377   -0.6456259430    0.9089362051
C        1.6488416971   -1.2659490486   -1.3148628723
C       -1.1653756481   -0.3155762754    3.1599201475
C       -0.4634298034   -0.0087906144   -0.4669981066
C        0.9603405202    0.0466426228   -1.0211984500
O       -0.1857124660   -1.7818362013    1.1677949401
O       -1.0562585261    0.2047492452    1.8157252947
F        1.7376924986    0.7831127982   -0.1390953579
F        0.9039049339    0.7960714132   -2.1872941739
H        2.6460665570   -1.0584456992   -1.7096736968
H        1.7222637195   -1.8629808602   -0.4057766806
H        1.0760310105   -1.8256202440   -2.0580592967
H       -1.6022357492    0.4914664031    3.7469958713
H       -0.1773473203   -0.5816234460    3.5415545048
H       -1.8085172201   -1.1982844575    3.1735160247
H       -1.0756593106   -0.6025176372   -1.1512501955
H       -0.8538509089    1.0089712375   -0.4350117359
17   
torsion grid (75,)
C       -0.5424730610   -0.6549885100    0.8988200953
C        1.6516485539   -1.2609445799   -1.3335124857
C       -1.1263781558   -0.2808110394    3.1549149894
C       -0.4801750274   -0.0389592655   -0.4871622728
C        0.9475380768    0.0431139737   -1.0297549400
O       -0.2038532231   -1.7920602670    1.1693929235
O       -1.0373345522    0.2155556468    1.8002402855
F        1.7034307542    0.7678615929   -0.1171659820
F        0.9052075626    0.8170992134   -2.1780499703
H        2.7146876145   -1.0565333460   -1.4826675937
H        1.5204966760   -1.9676059135   -0.5140890590
H        1.2496793408   -1.6839186976   -2.2574125036
H       -1.5433110858    0.5408165392    3.7362080600
H       -0.1340228993   -0.5510275200    3.5221038510
H       -1.7784727710   -1.1560682489    3.1957168005
H       -1.0725506750   -0.6597304375   -1.1650585998
H       -0.8955507192    0.9692541712   -0.4733317947
17   
torsion grid (90,)
C       -0.5686956392   -0.6698167299    0.9103204829
C        1.6500941699   -1.2544000804   -1.2901879784
C       -1.0907344624   -0.2749351471    3.1778096175
C       -0.5132108036   -0.0576750004   -0.4775445021
C        0.9153361702    0.0448492740   -1.0154858018
O       -0.2591610156   -1.8166351362    1.1755752632
O       -1.0179453953    0.2160120938    1.8202289368
F        1.6457045978    0.8013309437   -0.1072031312
F        0.8664479765    0.8018934729   -2.1743838724
H        2.7233054132   -1.0760490816   -1.1873973826
H        1.3429578557   -2.0339494038   -0.5933888493
H        1.4615686897   -1.5647968414   -2.3204593707
H       -1.4710015836    0.5593662034    3.7661264456
H       -0.0984883424   -0.5725693326    3.5235011310
H       -1.7663617801   -1.1311961058    3.2353773737
H       -1.0921720765   -0.6906873443   -1.1556104388
H       -0.9430852258    0.9444819476   -0.4680495608
17   
torsion grid (105,)
C       -0.6058428025   -0.6711908973    0.9202800691
C        1.6207478130   -1.2415399042   -1.2532750748
C       -1.0574448207   -0.2563823449    3.1992299983
C       -0.5708636917   -0.0662462378   -0.4712634524
C        0.8521694703    0.0529581696   -1.0204040246
O       -0.3135908289   -1.8234603473    1.1819448449
O       -1.0116195065    0.2273941932    1.8379375752
F        1.5655290007    0.8648841999   -0.1478148544
F        0.7725616023    0.7663937329   -2.2055825335
H        2.6463420512   -1.1127186930   -0.9006447975
H        1.1661962928   -2.0749700426   -0.7180360835
H        1.6575393052   -1.4513610126   -2.3242013231
H       -1.4025073894    0.5885106331    3.7940787330
H       -0.0629064123   -0.5748976059    3.5187850025
H       -1.7501456918   -1.0970579803    3.2794019088
H       -1.1431431371   -0.7128188035   -1.1417831043
H       -1.0141405198    0.9300548107   -0.4649920401
17   
torsion grid (120,)
C       -0.6202122665   -0.6664775227    0.9554319367
C        1.6020941217   -1.1927746619   -1.2118073835
C       -1.0459692342   -0.2634420132    3.2417358466
C       -0.6159284244   -0.0601016023   -0.4358615388
C        0.7980255107    0.0871460799   -1.0001318551
O       -0.2992068298   -1.8124998548    1.2100598139
O       -1.0303750875    0.2228134892    1.8806736000
F        1.5002856567    0.9497923008   -0.1718740757
F        0.6702683057    0.7586996070   -2.2077249116
H        2.5200234645   -1.1477966565   -0.6232095277
H        1.0370172236   -2.0704897674   -0.8981182894
H        1.8636821483   -1.2826168480   -2.2678140438
H       -1.3987002790    0.5736468100    3.8430990694
H       -0.0406494933   -0.5626434981    3.5459065125
H       -1.7205589943   -1.1178119544    3.3311031619
H       -1.1787169117   -0.7200036566   -1.1008399159
H       -1.0807151168    0.9262751394   -0.4255704872
17   
torsion grid (135,)
C       -0.5655378802   -0.6425978175    0.9611079946
C        1.5976400364   -1.2250731707   -1.2357424536
C       -1.0546912392   -0.2601853138    3.2387961065
C       -0.5860834962   -0.0438190245   -0.4335342350
C        0.8115569771    0.0656389807   -1.0423201005
O       -0.1757755320   -1.7642849528    1.2261457455
O       -1.0441700855    0.2232738734    1.8766055114
F        1.5509141788    0.9574388216   -0.2824298326
F        0.6419386843    0.6825501501   -2.2760655217
H        2.3689734435   -1.3116436932   -0.4698940079
H        0.9433228562   -2.0937758505   -1.1551190624
H        2.0523026376   -1.2188632589   -2.2283431449
H       -1.4687930107    0.5550188518    3.8310617353
H       -0.0386901072   -0.4967798985    3.5620025269
H       -1.6772901445   -1.1540227293    3.3188725778
H       -1.1844924367   -0.6924058150   -1.0783738068
H       -1.0290889771    0.9523892760   -0.4158831427
17   
torsion grid (150,)
C       -0.4752701307   -0.6077755677    0.9321813264
C        1.5710173382   -1.2340394723   -1.3863357453
C       -1.1046973735   -0.2839913445    3.1847043230
C       -0.5600500497   -0.0424414063   -0.4738500847
C        0.8020974828    0.0543288614   -1.1572756890
O        0.0794075172   -1.6482200943    1.2306901640
O       -1.1167389523    0.1828258850    1.8165284969
F        1.5888388284    0.9493824954   -0.4509684381
F        0.5649727571    0.6568108298   -2.3876429268
H        2.1871127532   -1.4672546216   -0.5185898058
H        0.8805766242   -2.0644422426   -1.5461708040
H        2.1853711438   -1.1216563848   -2.2824274042
H       -1.6641403190    0.4614497242    3.7488042553
H       -0.0776227641   -0.3553118277    3.5489199006
H       -1.5824574380   -1.2636786036    3.2552778708
H       -1.1935703952   -0.7048052496   -1.0704019418
H       -1.0096811683    0.9509977741   -0.4588411055
17   
torsion grid (165,)
C       -0.4761659697   -0.6131543644    0.9505601932
C        1.5631855484   -1.2242869113   -1.3993559749
C       -1.0875183034   -0.2547099089    3.2028106653
C       -0.5745443122   -0.0695850270   -0.4631917512
C        0.7825390107    0.0482364016   -1.1544524419
O        0.0821188047   -1.6481471427    1.2613654467
O       -1.1123245674    0.1897872461    1.8274289063
F        1.5650498273    0.9383087996   -0.4346470513
F        0.5409138770    0.6644012395   -2.3753266186
H        1.9776196320   -1.5999054464   -0.4646457049
H        0.9059853013   -1.9891113333   -1.8200131111
H        2.3563513366   -1.0138338778   -2.1205656562
H       -1.6436046866    0.4987518142    3.7595234715
H       -0.0571799694   -0.3180778147    3.5591677940
H       -1.5626561599   -1.2340272305    3.2933669051
H       -1.1986297454   -0.7516715913   -1.0475151074
H       -1.0429777642    0.9152574425   -0.4594733028
17   
torsion grid (180,)
C       -0.5026080377   -0.6725588051    0.9596703946
C        1.5880923541   -1.2118398863   -1.3731045939
C       -1.0182751654   -0.2386586682    3.2220729866
C       -0.5999384899   -0.1441681693   -0.4599429735
C        0.7666021992    0.0314086408   -1.1225764076
O       -0.0003477324   -1.7356529233    1.2725562325
O       -1.0624560406    0.1812090446    1.8395871579
F        1.5055763971    0.9206456017   -0.3556069125
F        0.5431207399    0.6742552999   -2.3313312631
H        1.7856967309   -1.7275222226   -0.4334263706
H        1.0434370610   -1.8862222852   -2.0382575814
H        2.5282465193   -0.9211109396   -1.8476066627
H       -1.5108795898    0.5563134195    3.7808068401
H        0.0178661818   -0.3558816695    3.5465636385
H       -1.5463455489   -1.1865259204    3.3472860103
H       -1.1797051588   -0.8578878852   -1.0516147256
H       -1.1081311535    0.8206551464   -0.4716842673
