30
0 1 C11H15NO3
C                     5.775120052042    -1.902418885768    -1.632766245031
C                     5.545620949417    -0.525586203535    -1.540553660544
C                     5.200893419209    -2.763739453904    -0.692166707323
C                     4.747771700424    -0.010762496071    -0.515284313892
C                     4.401255895208    -2.246227065825     0.330693777041
C                     4.167168593328    -0.867924212882     0.433176897420
C                     6.205205766078     1.418473208307     2.059314488790
C                     7.581023481130     0.903627037270     2.440809188095
C                     2.878671653376     1.286222531009     3.427997000587
C                     3.248264696829    -0.341836354643     1.518511858063
C                     3.762052889160     0.931533414438     2.226962390638
N                     5.149252168826     0.772973750176     2.667005473494
O                     6.049680070561     2.336237347055     1.258175202200
O                     3.260454272710     2.515644836549     4.030937963645
O                     1.916516669379    -0.118038226278     1.026304221481
H                     6.399035308394    -2.300431259025    -2.428899737462
H                     5.997158465095     0.152275727220    -2.260070182903
H                     5.373315139801    -3.835058515818    -0.756427103771
H                     4.615062734494     1.064412796596    -0.440950986905
H                     3.948339322553    -2.919943618107     1.055132261304
H                     7.917221002792     0.213598576303     1.659587221529
H                     8.278906387141     1.741833843358     2.473435804814
H                     7.596086198217     0.376524889197     3.399412996126
H                     2.913197095514     0.461414751192     4.160725003521
H                     1.844559332192     1.399498972032     3.100228980843
H                     3.126453204201    -1.126555066007     2.275357017122
H                     3.760162943336     1.776012986637     1.535025631980
H                     5.368459547302    -0.059901780726     3.201476139054
H                     4.224694087915     2.488906125940     4.150386902282
H                     1.991310708629     0.285283413685     0.146197608361
