31
0 1 C11H15N3O2
C                     1.225816925952    -0.839806365917    -2.609595884592
C                     1.339682076622     0.138139022625    -1.623147877715
C                     2.236072880125    -1.801861875183    -2.711171190883
C                     3.399715129854    -0.884772961264    -0.959925094733
C                     2.448661389427     0.126910078010    -0.766373232867
C                     4.409398397866     0.615487241421     1.792971544582
C                     1.605413270807     1.064123543041     1.522538240457
C                     5.733847658679     0.981603008505     2.436631048261
C                     0.026018182920    -0.309142124951     2.768506959564
C                     4.561327085379     2.676163895853     0.383214980332
C                     2.569035769045     1.193157971213     0.307155064525
N                     3.306606283218    -1.830308632243    -1.907238086750
N                     0.813041095904    -0.040167720061     1.569414726317
N                     3.935063927953     1.421472859909     0.788780135872
O                     3.780397483931    -0.386509039675     2.146140086314
O                     1.541350955972     1.993727714955     2.323232912355
H                     0.379080285947    -0.857361491792    -3.289981847763
H                     0.572304809374     0.901738726604    -1.512757373404
H                     2.183767845724    -2.580304317282    -3.471088451196
H                     4.272535793008    -0.941774438118    -0.317901515943
H                     5.704797972980     1.986199274824     2.869396949617
H                     5.927343157880     0.255879285091     3.226080058836
H                     6.556198283494     0.946692129563     1.714519694866
H                     0.665764923843    -0.605375411065     3.608157636254
H                    -0.688136599522    -1.107355225611     2.553128929638
H                    -0.516858261545     0.594283682101     3.049295187473
H                     4.430251001569     2.813523667993    -0.694188942158
H                     5.631753515299     2.655938467689     0.582031176467
H                     4.115816824047     3.530571673916     0.907762583631
H                     2.252409818893     2.138374987551    -0.143107308703
H                     1.165426508281    -0.845369431305     1.065808437988
