
  -OEChem-12102412483D

 31 31  0     1  0  0  0  0  0999 V2000
    3.7404   -1.1512   -1.3451 C   0  0  0  0  0  0  0  0  0  0  0  0
    3.6033   -0.0536   -0.4917 C   0  0  0  0  0  0  0  0  0  0  0  0
    2.6100   -1.9154   -1.6359 C   0  0  0  0  0  0  0  0  0  0  0  0
    1.2779   -0.5971   -0.3169 C   0  0  0  0  0  0  0  0  0  0  0  0
    2.3498    0.2347    0.0522 C   0  0  0  0  0  0  0  0  0  0  0  0
    3.7211    3.3185    0.4896 C   0  0  0  0  0  0  0  0  0  0  0  0
    1.3893    1.1012    2.2767 C   0  0  0  0  0  0  0  0  0  0  0  0
    2.8005    3.8059   -0.6188 C   0  0  0  0  0  0  0  0  0  0  0  0
    0.7125    2.0125    4.4604 C   0  0  0  0  0  0  0  0  0  0  0  0
    4.2928    1.6752    2.1873 C   0  0  0  0  0  0  0  0  0  0  0  0
    2.1175    1.4451    0.9436 C   0  0  1  0  0  0  0  0  0  0  0  0
    1.3928   -1.6445   -1.1407 N   0  0  0  0  0  0  0  0  0  0  0  0
    1.3163    2.1525    3.1406 N   0  0  0  0  0  0  0  0  0  0  0  0
    3.3268    2.2164    1.2211 N   0  0  0  0  0  0  0  0  0  0  0  0
    4.7868    3.8821    0.7359 O   0  0  0  0  0  0  0  0  0  0  0  0
    0.8736    0.0112    2.4980 O   0  0  0  0  0  0  0  0  0  0  0  0
    4.7026   -1.4037   -1.7814 H   0  0  0  0  0  0  0  0  0  0  0  0
    4.4629    0.5690   -0.2645 H   0  0  0  0  0  0  0  0  0  0  0  0
    2.6782   -2.7763   -2.2994 H   0  0  0  0  0  0  0  0  0  0  0  0
    0.2821   -0.4084    0.0751 H   0  0  0  0  0  0  0  0  0  0  0  0
    1.8507    4.1789   -0.2209 H   0  0  0  0  0  0  0  0  0  0  0  0
    3.3082    4.6243   -1.1284 H   0  0  0  0  0  0  0  0  0  0  0  0
    2.5774    3.0146   -1.3409 H   0  0  0  0  0  0  0  0  0  0  0  0
    0.4551    3.0032    4.8414 H   0  0  0  0  0  0  0  0  0  0  0  0
    1.3899    1.5188    5.1670 H   0  0  0  0  0  0  0  0  0  0  0  0
   -0.1937    1.4107    4.3769 H   0  0  0  0  0  0  0  0  0  0  0  0
    4.3560    2.3047    3.0802 H   0  0  0  0  0  0  0  0  0  0  0  0
    5.2888    1.6317    1.7420 H   0  0  0  0  0  0  0  0  0  0  0  0
    3.9812    0.6712    2.4787 H   0  0  0  0  0  0  0  0  0  0  0  0
    1.4178    2.1056    0.4253 H   0  0  0  0  0  0  0  0  0  0  0  0
    1.8920    2.9616    2.9467 H   0  0  0  0  0  0  0  0  0  0  0  0
  1  2  1  0  0  0  0
  1  3  2  0  0  0  0
  1 17  1  0  0  0  0
  2  5  2  0  0  0  0
  2 18  1  0  0  0  0
  3 12  1  0  0  0  0
  3 19  1  0  0  0  0
  4  5  1  0  0  0  0
  4 12  2  0  0  0  0
  4 20  1  0  0  0  0
  5 11  1  0  0  0  0
  6  8  1  0  0  0  0
  6 14  1  0  0  0  0
  6 15  2  0  0  0  0
  7 11  1  0  0  0  0
  7 13  1  0  0  0  0
  7 16  2  0  0  0  0
  8 21  1  0  0  0  0
  8 22  1  0  0  0  0
  8 23  1  0  0  0  0
  9 13  1  0  0  0  0
  9 24  1  0  0  0  0
  9 25  1  0  0  0  0
  9 26  1  0  0  0  0
 10 14  1  0  0  0  0
 10 27  1  0  0  0  0
 10 28  1  0  0  0  0
 10 29  1  0  0  0  0
 11 14  1  0  0  0  0
 11 30  1  0  0  0  0
 13 31  1  0  0  0  0
M  END
$$$$
