30
0 1 C11H15NO3
C                     5.451087705899    -1.835857663850    -1.558621643804
C                     5.624484954096    -2.132624593431    -0.201657581417
C                     4.403615083632    -0.997397228418    -1.951442037193
C                     4.759210992980    -1.585277771018     0.748714430594
C                     3.537404161347    -0.451293972450    -0.997671411006
C                     3.712854262572    -0.735333089425     0.361501278305
C                     1.818121559370     1.491740751225     3.932551034717
C                     1.617440124695     1.972720692051     5.357434611085
C                     3.693513856834     2.288962126166     1.445394892521
C                     2.805106051394    -0.121123329416     1.415605639337
C                     3.591328546805     0.963571908897     2.209628847137
N                     3.099344667514     1.188579895119     3.581757228636
O                     0.850036721385     1.381110360300     3.167249401577
O                     4.612074296157     3.184222697108     2.091262202899
O                     1.653020306973     0.397020848626     0.780259811269
H                     6.120874937472    -2.261904723873    -2.301295643540
H                     6.426655697030    -2.795188630162     0.113844211128
H                     4.255906409746    -0.770893565144    -3.004590175005
H                     4.892848839543    -1.833568829536     1.800710729538
H                     2.712209447154     0.186147757213    -1.296111037998
H                     1.352233853136     3.033984455610     5.330240294773
H                     0.774990889034     1.432300010852     5.794299519115
H                     2.498957735929     1.844916706729     5.991080018147
H                     2.726949852985     2.793042181560     1.437864452100
H                     3.983705971243     2.097071023474     0.406830185413
H                     2.531515141561    -0.907522702309     2.135520383422
H                     4.605339172041     0.575379424220     2.346827659445
H                     3.810806287210     1.497015356823     4.231640517783
H                     5.509168370881     2.945722919850     1.811830229722
H                     1.103344072938     0.777151487835     1.502160504508
