23   
torsion grid (-165,)
C        5.7432212188   -0.4409268728    3.5882437362
C        6.1471006618   -0.9628120552    2.3525709322
C        4.5627898524    0.3032306597    3.6762031508
C        5.3744437366   -0.7395752285    1.2145063490
C        3.7867647833    0.5230736606    2.5352889785
C        4.1837261100    0.0043273678    1.2911425575
C        3.4001459847    0.2105744680    0.0256079570
C        1.0091935203   -0.2078023023    0.6370994423
C        1.5673795388    1.3865451224   -1.2636041577
C        2.0095084849    0.8404654765    0.0971570704
O        3.8596020894   -0.1637801032   -1.0484908351
H        6.3458434687   -0.6127736837    4.4765401990
H        7.0643767082   -1.5415137549    2.2810220610
H        4.2474320379    0.7128074404    4.6322216151
H        5.6728459691   -1.1321688472    0.2474700321
H        2.8767064236    1.1068493794    2.6255225145
H        1.1581127737   -0.4128966708    1.7008667988
H        1.0918133400   -1.1486438306    0.0835552427
H       -0.0132129943    0.1648387009    0.5144401690
H        1.4790962443    0.5817109838   -1.9982266604
H        2.2886394482    2.1102442349   -1.6542672222
H        0.5953110755    1.8815288930   -1.1689715896
H        2.0398420525    1.6756569188    0.8065339300
23   
torsion grid (-150,)
C        5.7303816029   -0.4635771762    3.5805355357
C        6.1419156504   -0.9664733049    2.3394567946
C        4.5473077432    0.2756290898    3.6742469750
C        5.3737913461   -0.7291424173    1.2012218921
C        3.7756504043    0.5094067172    2.5331066867
C        4.1802594440    0.0096733781    1.2838606940
C        3.4015659315    0.2335027497    0.0187197740
C        1.0147044048   -0.1890416296    0.6681572722
C        1.5510207680    1.3914206506   -1.2620336780
C        2.0088469112    0.8563572493    0.0979621907
O        3.8661404423   -0.1213701060   -1.0596729498
H        6.3295485143   -0.6463205406    4.4689944595
H        7.0614334211   -1.5411082024    2.2639518850
H        4.2266570854    0.6704748016    4.6346957643
H        5.6777860648   -1.1063801222    0.2297991495
H        2.8635169758    1.0892180946    2.6268731069
H        0.9987070262   -0.1929881116    1.7612690678
H        1.2438006192   -1.1990086189    0.3150649311
H        0.0004215280    0.0545158437    0.3349915788
H        1.4449149085    0.5801879911   -1.9875772174
H        2.2718975221    2.1051898699   -1.6711078525
H        0.5843745252    1.8945024742   -1.1566017163
H        2.0479445817    1.7016277517    0.7949074580
23   
torsion grid (-135,)
C        5.5819838653   -0.1519827260    3.8354407657
C        6.1045653745   -0.7498197681    2.6812550325
C        4.3714752525    0.5445846062    3.7700565347
C        5.4205207300   -0.6496339345    1.4712445691
C        3.6846603305    0.6416265150    2.5570976909
C        4.2010699959    0.0460086076    1.3943106650
C        3.5153332999    0.1232688347    0.0595833553
C        1.0937786980   -0.2530679398    0.6374101812
C        1.7315320032    1.0573397601   -1.4669759164
C        2.1119382838    0.7230642230   -0.0217788810
O        4.0644456651   -0.3258613441   -0.9407611925
H        6.1159106312   -0.2282763223    4.7793096968
H        7.0455467048   -1.2917125798    2.7292621844
H        3.9636064418    1.0123607738    4.6622562005
H        5.8114649507   -1.1025620758    0.5654702589
H        2.7483592512    1.1885707465    2.5271495736
H        0.8182169158    0.0571136525    1.6488242298
H        1.4768787462   -1.2764589027    0.6877895397
H        0.1729026138   -0.2787219955    0.0467043899
H        1.6898253956    0.1526599023   -2.0797634024
H        2.4616716174    1.7308073981   -1.9249294612
H        0.7494365628    1.5408382021   -1.4900176779
H        2.1115034811    1.6578001882    0.5505747056
23   
torsion grid (-120,)
C        5.5833264117   -0.1709894550    3.8188373153
C        6.1199983866   -0.7322675666    2.6528970595
C        4.3536085295    0.4927440041    3.7697074689
C        5.4293378723   -0.6279084868    1.4468870330
C        3.6615508500    0.5960197013    2.5603597089
C        4.1921576347    0.0369545872    1.3858997183
C        3.5004618708    0.1217780856    0.0541528570
C        1.0721067947   -0.1948654076    0.6637130368
C        1.7252889235    1.0705051346   -1.4655527204
C        2.1080566261    0.7509713661   -0.0176707354
O        4.0386029219   -0.3349480717   -0.9483341943
H        6.1213399748   -0.2506322908    4.7600940256
H        7.0758011618   -1.2486035905    2.6885169416
H        3.9346126750    0.9299246744    4.6722094638
H        5.8290065643   -1.0538675569    0.5318745182
H        2.7084727350    1.1139627681    2.5432409922
H        0.6162621282    0.2653566638    1.5448666316
H        1.5208691066   -1.1387743325    0.9865563575
H        0.2692085255   -0.4397904615   -0.0373516672
H        1.6888685106    0.1587865002   -2.0676356916
H        2.4513593530    1.7436017958   -1.9305093285
H        0.7404063930    1.5485518211   -1.4942490853
H        2.1426966279    1.6919087535    0.5427395269
23   
torsion grid (-105,)
C        5.5970431903   -0.1764356592    3.7921805048
C        6.1248252627   -0.7282417388    2.6178170480
C        4.3602454442    0.4752612281    3.7603517081
C        5.4183084164   -0.6269432189    1.4206375854
C        3.6532987818    0.5770914581    2.5596098513
C        4.1748163274    0.0270437798    1.3765427244
C        3.4664628336    0.1090730248    0.0525877633
C        1.0334326176   -0.1746066549    0.6503703517
C        1.7131896675    1.1106856502   -1.4526603521
C        2.0856263603    0.7663732444   -0.0077952152
O        3.9840064354   -0.3674176867   -0.9514254819
H        6.1471222580   -0.2542315169    4.7265878402
H        7.0861030207   -1.2350842791    2.6398269892
H        3.9473106137    0.9040135255    4.6696664376
H        5.8104430066   -1.0470011592    0.4996679457
H        2.6941700960    1.0843791499    2.5567019968
H        0.4003323727    0.3675672878    1.3591155482
H        1.4998524579   -0.9919516415    1.2082952561
H        0.3938261157   -0.6243287560   -0.1139404458
H        1.6975782117    0.2100012511   -2.0713407597
H        2.4336841578    1.8042376417   -1.8961251498
H        0.7215216006    1.5748184243   -1.4842320415
H        2.1374077704    1.6945747743    0.5714303182
23   
torsion grid (-90,)
C        5.6192254294   -0.1765423066    3.7917919640
C        6.1232876591   -0.7550042604    2.6199121214
C        4.3960415263    0.5003828774    3.7616900256
C        5.4069113002   -0.6544909255    1.4285407176
C        3.6788487088    0.6005806382    2.5668274360
C        4.1765345003    0.0240893558    1.3859183165
C        3.4586483741    0.1008001201    0.0663642852
C        1.0282267700   -0.2114408709    0.6220331729
C        1.7164291891    1.1331384410   -1.4299418925
C        2.0762722667    0.7561815421    0.0100305899
O        3.9688601939   -0.3826663079   -0.9383262060
H        6.1765495520   -0.2531656690    4.7220016122
H        7.0738046647   -1.2818618707    2.6392640491
H        4.0011442953    0.9505913004    4.6686263965
H        5.7817246603   -1.0945837005    0.5097725642
H        2.7309355575    1.1285628002    2.5671220592
H        0.2276487110    0.3451066945    1.1192685190
H        1.4675383969   -0.8686628101    1.3785985423
H        0.5932213201   -0.8459758814   -0.1552003986
H        1.7282573313    0.2495447740   -2.0723808449
H        2.4284267183    1.8534675616   -1.8437571153
H        0.7159543242    1.5780631386   -1.4642119359
H        2.1103420915    1.6658105882    0.6190495357
23   
torsion grid (-75,)
C        5.6347969340   -0.1776293748    3.7593786139
C        6.1184373010   -0.7658886928    2.5837363100
C        4.4176680209    0.5105124418    3.7438885074
C        5.3858526982   -0.6637064063    1.4025436538
C        3.6854046544    0.6122717906    2.5583079221
C        4.1610212923    0.0259132649    1.3730759064
C        3.4259760393    0.1000523025    0.0632715068
C        0.9972990131   -0.2181214486    0.5782593674
C        1.6976908290    1.1942558988   -1.4142813987
C        2.0486060681    0.7669388012    0.0141552523
O        3.9164775039   -0.4013001604   -0.9428638289
H        6.2040678825   -0.2552950568    4.6822115000
H        7.0644424577   -1.3011257186    2.5923363263
H        4.0395248692    0.9682819370    4.6541869963
H        5.7434595624   -1.1116816171    0.4807622513
H        2.7436076995    1.1508243540    2.5693958394
H        0.0797085997    0.3157205989    0.8458027390
H        1.3511655324   -0.7254345714    1.4811515025
H        0.7575593274   -0.9844604685   -0.1647895628
H        1.7166930344    0.3346761146   -2.0880497071
H        2.4108457818    1.9310566394   -1.7961431103
H        0.6966405882    1.6383979497   -1.4404418577
H        2.0716533345    1.6544570668    0.6554572172
23   
torsion grid (-60,)
C        5.6330308889   -0.1855085079    3.7320056497
C        6.1023310862   -0.7725739091    2.5498712817
C        4.4240871382    0.5169551851    3.7279088332
C        5.3657407421   -0.6565662846    1.3725997852
C        3.6857688198    0.6328495550    2.5474285577
C        4.1484693601    0.0469680311    1.3567612431
C        3.4063311377    0.1358434942    0.0527866887
C        0.9831746427   -0.2109715464    0.5618101244
C        1.6655655568    1.2455594461   -1.4024186038
C        2.0246825870    0.7907093935    0.0153664202
O        3.8938078247   -0.3487052617   -0.9632322387
H        6.2071520598   -0.2749399524    4.6507697374
H        7.0421277050   -1.3186312053    2.5504448685
H        4.0572207170    0.9749100343    4.6427082543
H        5.7129177792   -1.1031380867    0.4460803646
H        2.7516826031    1.1843967581    2.5660771581
H       -0.0068435885    0.2556386165    0.5910519014
H        1.2275426248   -0.5542900640    1.5712326601
H        0.9264766296   -1.0894498749   -0.0893522264
H        1.6530197558    0.3970781286   -2.0909299762
H        2.3923065284    1.9693519929   -1.7833029815
H        0.6761590092    1.7150885049   -1.4067497097
H        2.0347169625    1.6676967825    0.6723744159
23   
torsion grid (-45,)
C        5.6046669175   -0.2149138589    3.7285336113
C        6.0662463627   -0.8064385407    2.5455545644
C        4.4159188081    0.5211760461    3.7217202909
C        5.3417958808   -0.6596597025    1.3641913016
C        3.6881281994    0.6640878082    2.5376386979
C        4.1434089835    0.0756103004    1.3456094884
C        3.4135334036    0.1973786237    0.0380095045
C        1.0058546867   -0.2164711641    0.5824610523
C        1.6212549349    1.2618594798   -1.3931318444
C        2.0145092811    0.8098836232    0.0162603145
O        3.9231085071   -0.2307614501   -0.9925256195
H        6.1695911484   -0.3268862628    4.6505137673
H        6.9900470135   -1.3791538525    2.5486598794
H        4.0566498702    0.9840684790    4.6370524050
H        5.6845584302   -1.1063802677    0.4361154015
H        2.7701192930    1.2422315856    2.5530230766
H       -0.0176211700    0.1196474155    0.3880135844
H        1.1297418609   -0.3771352726    1.6563347030
H        1.1266485318   -1.1835214420    0.0811368517
H        1.5696426253    0.4111122161   -2.0780177867
H        2.3502948989    1.9679098089   -1.8012598279
H        0.6415209876    1.7500051561   -1.3678507498
H        2.0079863936    1.6894229255    0.6711525893
23   
torsion grid (-30,)
C        5.5942410912   -0.2394318862    3.7233674435
C        6.0608898076   -0.8146622721    2.5343077403
C        4.4044179962    0.4948885649    3.7211904013
C        5.3405039270   -0.6537714654    1.3523061828
C        3.6804287229    0.6517117902    2.5364813996
C        4.1405317876    0.0790418044    1.3388059738
C        3.4149911685    0.2184505249    0.0307095362
C        1.0086252988   -0.1943588867    0.6117991700
C        1.6032756247    1.2657470302   -1.3933239849
C        2.0131640037    0.8256296542    0.0150180324
O        3.9299157012   -0.1912155638   -1.0044161953
H        6.1560378438   -0.3623047478    4.6458841008
H        6.9857619577   -1.3856536137    2.5332901321
H        4.0414084176    0.9459177969    4.6409566102
H        5.6876040153   -1.0875420450    0.4196993914
H        2.7623900641    1.2295456999    2.5554485471
H        0.0071269310   -0.0109497257    0.2107814226
H        0.9715877217   -0.1627166907    1.7033196386
H        1.2755511377   -1.2157192448    0.3184989422
H        1.5476274297    0.4096711434   -2.0714606630
H        2.3252101270    1.9712644621   -1.8146476605
H        0.6220183447    1.7500945205   -1.3602263793
H        2.0167040593    1.7155726887    0.6555826887
23   
torsion grid (-15,)
C        5.5833578244   -0.2706295482    3.7122086345
C        6.0667262957   -0.8079377634    2.5120947989
C        4.3797597929    0.4408268510    3.7214750112
C        5.3492212901   -0.6322923726    1.3304120317
C        3.6592911855    0.6133352424    2.5367818099
C        4.1361058714    0.0785648107    1.3284287869
C        3.4139445384    0.2380336054    0.0205421577
C        1.0066129561   -0.1510493982    0.6504510194
C        1.5919171062    1.2652168086   -1.3983434222
C        2.0137194959    0.8507857626    0.0143403590
O        3.9317145698   -0.1546610850   -1.0194305955
H        6.1428285908   -0.4052999215    4.6344996510
H        7.0023701183   -1.3610220388    2.5023070133
H        4.0033650607    0.8617669312    4.6500870951
H        5.7087354177   -1.0370455254    0.3894879258
H        2.7294221395    1.1713376729    2.5644972454
H        0.0727786370   -0.1561734585    0.0807715249
H        0.7800130986    0.0856639127    1.6929046263
H        1.3915690549   -1.1757587117    0.6251206093
H        1.5228758030    0.3951323091   -2.0571328631
H        2.3138463667    1.9564597939   -1.8424520426
H        0.6140867156    1.7566581986   -1.3646671745
H        2.0397833070    1.7542755570    0.6346763172
23   
torsion grid (0,)
C        5.6117288922   -0.2660568710    3.7459589722
C        6.1241584232   -0.7908268380    2.5524217559
C        4.3884238825    0.4111640599    3.7397779785
C        5.4164218860   -0.6371311963    1.3616731170
C        3.6790145812    0.5636554031    2.5457847886
C        4.1853616585    0.0414722188    1.3439698622
C        3.4738911508    0.1806896342    0.0272547322
C        1.0547784300   -0.1408052447    0.6714084939
C        1.6772362893    1.1869238187   -1.4284993104
C        2.0846534513    0.8198561697    0.0014366369
O        3.9944511701   -0.2398139780   -1.0001443661
H        6.1634620703   -0.3843930922    4.6751299569
H        7.0749635534   -1.3175002615    2.5547284675
H        3.9879927204    0.8203754108    4.6635763837
H        5.7976128530   -1.0341183032    0.4259787064
H        2.7313111670    1.0914209959    2.5618959909
H        0.2395620920   -0.3611766271   -0.0235071182
H        0.6146825130    0.2970504205    1.5717353359
H        1.5034565828   -1.0952903453    0.9616876682
H        1.6273092843    0.2951822017   -2.0588184420
H        2.3971076428    1.8727851768   -1.8842883580
H        0.6935686401    1.6683184268   -1.4241783951
H        2.1367831641    1.7422832190    0.5906883355
23   
torsion grid (15,)
C        5.6015474520   -0.2907088791    3.6696719495
C        6.0910169806   -0.7778065376    2.4509260664
C        4.3696950030    0.3697610167    3.7110433355
C        5.3512806938   -0.6034429926    1.2825722902
C        3.6294397557    0.5447993264    2.5391493603
C        4.1124035503    0.0600769268    1.3119623600
C        3.3669662365    0.2222549498    0.0160827726
C        0.9510891449   -0.0805778250    0.6703347085
C        1.5767164368    1.3167898900   -1.3769702552
C        1.9898898706    0.8900407326    0.0342884276
O        3.8518225072   -0.1988121425   -1.0282498536
H        6.1774899630   -0.4254761785    4.5817491339
H        7.0483448152   -1.2913636866    2.4160377153
H        3.9864866165    0.7483801248    4.6549700259
H        5.7134254556   -0.9725701366    0.3281099980
H        2.6746902345    1.0574712232    2.5930685220
H        0.2804168617   -0.4708843256   -0.1005400737
H        0.3275984977    0.4378358281    1.4056345112
H        1.4170835436   -0.9294793840    1.1774367495
H        1.5360134068    0.4523077045   -2.0441608666
H        2.2886477023    2.0301573710   -1.8024628499
H        0.5880145473    1.7877460789   -1.3526010292
H        2.0662984613    1.7836371024    0.6630868391
23   
torsion grid (30,)
C        5.6358375494   -0.2793739172    3.6824887339
C        6.1053610142   -0.7956380788    2.4679159412
C        4.4115352865    0.3947750577    3.7253349297
C        5.3531667651   -0.6369161186    1.3053951632
C        3.6590666458    0.5548118119    2.5590195545
C        4.1217211986    0.0405307533    1.3358246146
C        3.3627304129    0.1807208913    0.0449956926
C        0.9432437519   -0.1209031254    0.6423599198
C        1.6040574424    1.3212818884   -1.3503815443
C        1.9922748934    0.8627499352    0.0580139661
O        3.8300088272   -0.2747751388   -0.9931691749
H        6.2213393435   -0.4021908642    4.5901506946
H        7.0568071033   -1.3199259810    2.4317488750
H        4.0435821729    0.7959913385    4.6659855218
H        5.6995674962   -1.0293889709    0.3544405994
H        2.7108641276    1.0792849358    2.6148965582
H        0.4714140512   -0.6888730738   -0.1650830355
H        0.1455452188    0.4323182106    1.1494569929
H        1.3702328663   -0.8235509128    1.3625517470
H        1.5966284137    0.4747531108   -2.0408268011
H        2.3118008249    2.0601982568   -1.7380971619
H        0.6062785903    1.7734756310   -1.3384030841
H        2.0562736945    1.7371446375    0.7140872810
23   
torsion grid (45,)
C        5.6394049863   -0.2922314078    3.6356160814
C        6.0806699491   -0.8146488105    2.4130836023
C        4.4295095772    0.4059400893    3.6969178884
C        5.3164420008   -0.6390353398    1.2609911125
C        3.6635440966    0.5825171987    2.5418302238
C        4.0986948588    0.0618607775    1.3111074163
C        3.3254851025    0.2182293238    0.0309351646
C        0.9110799331   -0.1181826998    0.5979439132
C        1.5626931200    1.3976531996   -1.3330025900
C        1.9514697619    0.8920748032    0.0592446920
O        3.7835077424   -0.2245693499   -1.0170824544
H        6.2353567412   -0.4285771911    4.5345133133
H        7.0209342025   -1.3575365258    2.3625064980
H        4.0832690658    0.8132560400    4.6431640566
H        5.6421169881   -1.0355956906    0.3043980485
H        2.7279891311    1.1274196320    2.6122717495
H        0.6448828937   -0.8353394676   -0.1850407923
H       -0.0066735106    0.4069424681    0.8838596872
H        1.2700722579   -0.6705414287    1.4705317120
H        1.5573118433    0.5762509926   -2.0532001236
H        2.2693855206    2.1508959897   -1.6941418205
H        0.5641790782    1.8473534133   -1.3060818598
H        1.9980155958    1.7427818770    0.7476196302
23   
torsion grid (60,)
C        5.6352274934   -0.2943564378    3.6070215657
C        6.0629217306   -0.8185191598    2.3803671253
C        4.4336302922    0.4170050313    3.6784418540
C        5.2920213763   -0.6306418923    1.2347768310
C        3.6612822400    0.6046835517    2.5293248569
C        4.0817477267    0.0826875519    1.2941573358
C        3.3012292450    0.2494144899    0.0205093910
C        0.8914136464   -0.1107332713    0.5737826204
C        1.5326443374    1.4618729882   -1.3140184180
C        1.9255996927    0.9163534293    0.0621360129
O        3.7516311499   -0.1828184079   -1.0354973331
H        6.2356987959   -0.4394552184    4.5015184363
H        6.9967180569   -1.3716979017    2.3217580697
H        4.0988469978    0.8261934227    4.6279951268
H        5.6067973865   -1.0278629288    0.2748613447
H        2.7334161575    1.1615083108    2.6074118691
H        0.8212478684   -0.9540088598   -0.1211305683
H       -0.0971043581    0.3549808451    0.6429452547
H        1.1523180090   -0.5057658980    1.5599238445
H        1.4815005299    0.6565994237   -2.0510044451
H        2.2621469474    2.1934125802   -1.6742099407
H        0.5533541187    1.9491039709   -1.2591495960
H        1.9602370745    1.7500419393    0.7723425485
23   
torsion grid (75,)
C        5.6710860134   -0.3265711077    3.6156353544
C        6.0960121612   -0.8620871160    2.3928768787
C        4.4791282646    0.4015912884    3.6777562454
C        5.3335296837   -0.6689748984    1.2425634163
C        3.7134764233    0.5929937396    2.5247415169
C        4.1320950767    0.0598798692    1.2938275451
C        3.3595058237    0.2328141586    0.0168186653
C        0.9573255960   -0.1667881346    0.5891836554
C        1.5585284331    1.4086970982   -1.3157279871
C        1.9723233246    0.8723512499    0.0580549433
O        3.8245486892   -0.1759188363   -1.0422531570
H        6.2658459444   -0.4755610032    4.5133242001
H        7.0222160238   -1.4285102843    2.3410195555
H        4.1465257947    0.8211455354    4.6235320407
H        5.6479023606   -1.0737120112    0.2856358895
H        2.7939651084    1.1644646200    2.5955266483
H        1.0718857771   -1.1209547578    0.0642736421
H       -0.0655706661    0.1927842879    0.4418001414
H        1.0995406266   -0.3663763073    1.6555267465
H        1.4892679664    0.5992563838   -2.0472271473
H        2.2854632996    2.1333003847   -1.6944147571
H        0.5830479502    1.9009751150   -1.2452379191
H        1.9938832777    1.7139974332    0.7598897461
23   
torsion grid (90,)
C        5.6379134122   -0.3635007609    3.6114452638
C        6.0690016152   -0.8819511090    2.3834635650
C        4.4529306566    0.3756374103    3.6774470510
C        5.3183401326   -0.6600310510    1.2305623957
C        3.6984905895    0.5935661109    2.5217511777
C        4.1228353471    0.0781761628    1.2854811876
C        3.3633680247    0.2849397534    0.0058715667
C        0.9710763379   -0.1489955563    0.6293453364
C        1.5202484188    1.4085649091   -1.3159257309
C        1.9643898414    0.8966516306    0.0576265728
O        3.8489087986   -0.0744120728   -1.0616284272
H        6.2235141171   -0.5341099258    4.5112863991
H        6.9900502062   -1.4565632140    2.3295771591
H        4.1173913217    0.7827799809    4.6276162442
H        5.6377756751   -1.0491237863    0.2688092581
H        2.7847160547    1.1739490882    2.5937652108
H        1.2456034396   -1.1644604840    0.3258752719
H       -0.0442817685    0.0582162326    0.2797820479
H        0.9621063571   -0.1436645507    1.7232259229
H        1.4336210246    0.5865812781   -2.0318904664
H        2.2386296015    2.1251800727   -1.7243803743
H        0.5465034265    1.9018159152   -1.2309748106
H        1.9877268753    1.7529064281    0.7419093867
23   
torsion grid (105,)
C        5.6452875082   -0.3863442653    3.6074581794
C        6.0967060399   -0.8825860313    2.3775737539
C        4.4474398453    0.3319980555    3.6708793379
C        5.3533939452   -0.6593094960    1.2201394998
C        3.7010254436    0.5521978558    2.5103872580
C        4.1458119920    0.0590170257    1.2724774592
C        3.3946016718    0.2707406892   -0.0114734483
C        1.0001907874   -0.1289591301    0.6600406503
C        1.5475816549    1.3593108288   -1.3488280702
C        1.9984923701    0.8910288652    0.0378400637
O        3.8855599891   -0.0862818292   -1.0769317836
H        6.2250290496   -0.5582283094    4.5108514038
H        7.0277673569   -1.4410357273    2.3257832337
H        4.0957065479    0.7211103757    4.6227511907
H        5.6880832326   -1.0316975807    0.2569516066
H        2.7759158234    1.1144070668    2.5802382468
H        1.3882635109   -1.1516219648    0.6258504853
H        0.0494315085   -0.1083731803    0.1203587150
H        0.7947973108    0.0912416205    1.7114345726
H        1.4595977326    0.5144580562   -2.0374448427
H        2.2627710482    2.0637477043   -1.7830750366
H        0.5731385541    1.8532177090   -1.2753166975
H        2.0441094052    1.7704075607    0.6905363917
23   
torsion grid (120,)
C        5.6425443432   -0.4103184880    3.5889613223
C        6.1056362135   -0.8690773625    2.3490238640
C        4.4295685848    0.2808833946    3.6680455302
C        5.3574350873   -0.6344854436    1.1968486800
C        3.6786762372    0.5138219450    2.5131092276
C        4.1361041307    0.0583621502    1.2654053688
C        3.3812161766    0.2857729793   -0.0143263526
C        0.9861439346   -0.0736791850    0.7017507444
C        1.5318891542    1.3720963754   -1.3409389129
C        1.9919391749    0.9230792986    0.0488554066
O        3.8674371454   -0.0627410689   -1.0844291477
H        6.2250798418   -0.5908014367    4.4888646966
H        7.0482147417   -1.4065963424    2.2852259610
H        4.0690177429    0.6387361132    4.6288342533
H        5.6993111863   -0.9780694460    0.2254877220
H        2.7396129040    1.0508911417    2.5952461796
H        1.4454222803   -1.0409119366    0.9253750898
H        0.1493059605   -0.2609935554    0.0229316386
H        0.5753160432    0.3144747905    1.6379896644
H        1.4494006614    0.5172476993   -2.0174092202
H        2.2391932982    2.0774052351   -1.7864489019
H        0.5531484724    1.8584572270   -1.2709830986
H        2.0680051955    1.8105198507    0.6873499163
23   
torsion grid (135,)
C        5.6671033108   -0.4065346255    3.5853914922
C        6.1232967984   -0.8654256339    2.3430854885
C        4.4482007691    0.2738089795    3.6682426454
C        5.3649252942   -0.6429924315    1.1949296553
C        3.6879127581    0.4960713729    2.5173566798
C        4.1386024862    0.0401631719    1.2671394354
C        3.3727072885    0.2552873983   -0.0090786946
C        0.9718358732   -0.0660745448    0.6952438796
C        1.5494627399    1.3832081587   -1.3302751419
C        1.9956767649    0.9197800659    0.0591081867
O        3.8416507105   -0.1200064984   -1.0778488255
H        6.2576187332   -0.5782454538    4.4818419940
H        7.0701289958   -1.3947227716    2.2740733047
H        4.0899789283    0.6315676061    4.6299244970
H        5.7030461100   -0.9889315294    0.2231378430
H        2.7436163765    1.0232212728    2.6052311828
H        1.4532939633   -0.9345123063    1.1532481908
H        0.3019431049   -0.4525100995   -0.0789719087
H        0.3565870295    0.4234106283    1.4555134491
H        1.4872937068    0.5356658706   -2.0173776385
H        2.2542120255    2.1032436063   -1.7563024932
H        0.5640176440    1.8575708433   -1.2691873987
H        2.0881331105    1.7972670989    0.7086138896
23   
torsion grid (150,)
C        5.6963073548   -0.3975136416    3.5815287459
C        6.1323897470   -0.8801722910    2.3410143095
C        4.4849439626    0.2951028246    3.6727395031
C        5.3592240576   -0.6686963180    1.2008321825
C        3.7104880894    0.5069328218    2.5293964788
C        4.1402235470    0.0269429427    1.2805405555
C        3.3589011881    0.2256574646    0.0108398873
C        0.9542010771   -0.0915405745    0.6642912749
C        1.5654170521    1.4048963632   -1.3050676216
C        1.9892519395    0.9058465136    0.0790214186
O        3.8086343583   -0.1797959528   -1.0553872570
H        6.2978893734   -0.5607213182    4.4721485079
H        7.0736069186   -1.4187895583    2.2671912443
H        4.1438661656    0.6704627233    4.6339553288
H        5.6797506884   -1.0329776914    0.2297952787
H        2.7725370174    1.0443959697    2.6226588882
H        1.4108382376   -0.8309165708    1.3281387746
H        0.4877519975   -0.6535129047   -0.1514781632
H        0.1625882678    0.4309261630    1.2092089703
H        1.5299571869    0.5771483752   -2.0172106870
H        2.2687220935    2.1473220137   -1.6939689484
H        0.5725353675    1.8647872013   -1.2522713634
H        2.0734625040    1.7621955367    0.7569142580
23   
torsion grid (165,)
C        5.7200273554   -0.3944236040    3.5802233074
C        6.1355796238   -0.8986986569    2.3412088424
C        4.5179841282    0.3136947446    3.6739527407
C        5.3528699371   -0.6942356493    1.2063672227
C        3.7338873370    0.5186270073    2.5358120302
C        4.1427206670    0.0167450809    1.2884681722
C        3.3497481295    0.2040126788    0.0245895958
C        0.9447498708   -0.1250797573    0.6315973120
C        1.5722047479    1.4238098984   -1.2821504812
C        1.9822562255    0.8878285595    0.0924858322
O        3.7855367135   -0.2200809625   -1.0405131829
H        6.3295409482   -0.5525327906    4.4663766433
H        7.0694734297   -1.4494840486    2.2644494333
H        4.1916713952    0.7069401034    4.6331345299
H        5.6586573256   -1.0761469522    0.2373849959
H        2.8047032298    1.0704178840    2.6322326409
H        1.3303733584   -0.7119805384    1.4702139856
H        0.6777204218   -0.8337126395   -0.1595817830
H        0.0321472056    0.3880244356    0.9501080111
H        1.5440705969    0.6164164097   -2.0175554780
H        2.2796355942    2.1766257174   -1.6427950507
H        0.5791601767    1.8829144581   -1.2271737222
H        2.0494080749    1.7247826380    0.7961103864
23   
torsion grid (180,)
C        5.7429664793   -0.4069352170    3.5850430750
C        6.1497682078   -0.9233680501    2.3480571469
C        4.5481608511    0.3131532064    3.6793213118
C        5.3649626550   -0.7190550843    1.2147819586
C        3.7615758086    0.5169967093    2.5427018553
C        4.1612454538    0.0030035617    1.2973168617
C        3.3650604090    0.1878951623    0.0359037643
C        0.9633065416   -0.1714963867    0.6251588549
C        1.5784947608    1.4124442133   -1.2618837863
C        1.9916169755    0.8568344281    0.1042340547
O        3.8008617930   -0.2311725560   -1.0314436578
H        6.3544045219   -0.5648170239    4.4698925050
H        7.0782417689   -1.4833092537    2.2717845224
H        4.2297093331    0.7165158994    4.6369501484
H        5.6636246971   -1.1097187320    0.2470566502
H        2.8392794668    1.0803188595    2.6383596480
H        1.2426094478   -0.5792592889    1.6010077473
H        0.8767690370   -1.0070198492   -0.0772458774
H       -0.0220526584    0.2966120021    0.7189101848
H        1.5051508487    0.6112061584   -2.0014618235
H        2.3084762629    2.1381120426   -1.6326901290
H        0.6053290590    1.9090872569   -1.1862949894
H        2.0394289534    1.6854884699    0.8196336787
