25   
torsion grid (-165,)
C       -3.5193250326   -2.0008580543   -5.6467442476
C       -4.3972418288   -1.0626175465   -6.2074798897
C       -3.0564926719    0.7323767239   -5.2400789013
C       -2.1787538405   -0.2064251258   -4.6830017158
C       -2.4345968862   -1.5726149968   -4.9018275280
C       -4.1484944072    0.2888091516   -5.9938553177
C        2.6624922163    2.0249795346   -3.0301924937
C        1.9529972356    3.2741130179   -2.4935142192
C        0.4729894209    1.5304895034   -2.8677756509
C       -0.8024728024    1.4683928574   -3.6877369293
O        1.6038133591    1.3235751773   -3.6872971132
O        0.5944923293    2.8400927255   -2.3074513476
O       -1.0835268783    0.0919150395   -3.9370563781
F       -1.5908508707   -2.4811359607   -4.3627833289
Br      -5.3294545348    1.5969492737   -6.7554664284
H       -3.6730952450   -3.0665575679   -5.7862740869
H       -5.2492969574   -1.3868601645   -6.7940292924
H       -2.8990209075    1.7935189809   -5.0959661317
H        3.4406550537    2.2352538920   -3.7656848913
H        3.0796767290    1.4153785938   -2.2167137620
H        2.3567188766    3.6189527093   -1.5370345630
H        1.9697656458    4.0976793141   -3.2159615387
H        0.4471102068    0.7862643093   -2.0562510295
H       -0.6530271375    2.0176946463   -4.6240442144
H       -1.6145964561    1.9294390058   -3.1137134738
25   
torsion grid (-150,)
C       -3.4792806229   -1.0422439509   -7.2143279269
C       -3.9801160801    0.0407062110   -7.9504554678
C       -2.5299310655    1.5397508984   -6.6810942343
C       -2.0285395975    0.4560556287   -5.9488793785
C       -2.5234125877   -0.8292873087   -6.2367211342
C       -3.4940817916    1.3129740769   -7.6692918841
C        2.6713772781    1.9136738406   -3.1174803217
C        1.9283416036    3.1136113270   -2.5139775260
C        0.4866956317    1.6425394262   -3.5739994628
C       -0.5613868414    1.8284450957   -4.6597322118
O        1.7711403761    1.4683821283   -4.1353235388
O        0.5429929679    2.8176128457   -2.7611346954
O       -1.0933632297    0.5385777317   -4.9671642995
F       -2.0430224870   -1.8771086854   -5.5298902401
Br      -4.1549426357    2.8154590481   -8.6647670841
H       -3.8275497812   -2.0541911132   -7.3974250709
H       -4.7278065867   -0.1140359263   -8.7200234231
H       -2.1808219910    2.5466992442   -6.4923055378
H        3.6219118050    2.1687096202   -3.5887332261
H        2.8301075532    1.1207609851   -2.3735865547
H        2.0923388089    3.2193488223   -1.4374128369
H        2.1867405320    4.0519898555   -3.0168386480
H        0.2246244032    0.7785977769   -2.9433551014
H       -0.0976807910    2.2859573436   -5.5403813470
H       -1.3522786525    2.4820210751   -4.2753681764
25   
torsion grid (-135,)
C       -3.7408126976   -1.5910797085   -6.1057434526
C       -4.3916550726   -0.5980267616   -6.8513847916
C       -2.8400637880    1.0567868483   -5.9514679642
C       -2.1891863551    0.0637055423   -5.2083328702
C       -2.6629687105   -1.2576860069   -5.3047029364
C       -3.9275328755    0.7096916872   -6.7604606193
C        2.7194631686    2.2001537291   -3.0797978044
C        1.8514807985    3.1093014624   -2.1895723476
C        0.5831682080    1.5553001191   -3.3370556643
C       -0.6141138492    1.5981713217   -4.2786388040
O        1.7912030529    1.7222403095   -4.0553472105
O        0.5122034440    2.6356697656   -2.4071708376
O       -1.1253799974    0.2670434542   -4.3882937383
F       -2.0377572548   -2.2191007722   -4.5880752411
Br      -4.7936212389    2.0916839253   -7.7732106774
H       -4.0666913923   -2.6260438703   -6.1445983276
H       -5.2362776190   -0.8478340981   -7.4833612618
H       -2.5117790131    2.0870926202   -5.9077206640
H        3.5228597301    2.7241096159   -3.6001294264
H        3.1390175400    1.3601671330   -2.5093686860
H        2.1086023210    3.0258911579   -1.1287299767
H        1.9012228241    4.1598804446   -2.4937071449
H        0.5965089114    0.5998630013   -2.7898273810
H       -0.2940172593    1.9751029435   -5.2556976439
H       -1.3755590553    2.2619169984   -3.8562090007
25   
torsion grid (-120,)
C       -4.0794881560   -0.5011722591   -6.7046708700
C       -4.5038207243    0.5923161869   -7.4727022358
C       -2.7210004166    1.9404879358   -6.4901398677
C       -2.2989627528    0.8470615380   -5.7232001191
C       -2.9989688875   -0.3668581743   -5.8509063413
C       -3.8147591931    1.7940514735   -7.3503334914
C        2.6348138663    2.3936435402   -3.0224288532
C        1.6597615468    3.0094272117   -1.9935735186
C        0.5416748353    1.8425263101   -3.6346339941
C       -0.5448302389    2.0836312728   -4.6769272959
O        1.8125038643    2.1662120076   -4.1688286919
O        0.3570434524    2.7022653948   -2.5139830926
O       -1.2542468161    0.8541170067   -4.8548801179
F       -2.5930819629   -1.4242950439   -5.1119949204
Br      -4.3701681321    3.3094394303   -8.3896653955
H       -4.5855928667   -1.4598226182   -6.7655131223
H       -5.3493484544    0.4992598531   -8.1447483394
H       -2.2119500177    2.8934265324   -6.4261041470
H        3.4485385459    3.0597518341   -3.3141416865
H        3.0524322010    1.4444150824   -2.6608508585
H        1.7831300163    2.5729065162   -0.9964712202
H        1.7493671207    4.0975758914   -1.9251922869
H        0.5231444904    0.7910894029   -3.3065782778
H       -0.0785519873    2.3962344919   -5.6171717727
H       -1.2197826855    2.8677155121   -4.3193588527
25   
torsion grid (-105,)
C       -4.1783967372   -0.3924849452   -6.6364875661
C       -4.5489295558    0.6867046247   -7.4510770316
C       -2.6847988002    1.9774563954   -6.5449387558
C       -2.3161736599    0.8992033043   -5.7305018581
C       -3.0839147333   -0.2780802233   -5.7976681260
C       -3.7936181673    1.8527403886   -7.3891246195
C        2.6127807018    2.5424331433   -3.0003514731
C        1.5593429657    2.9023651676   -1.9300025566
C        0.6087609529    1.8188476525   -3.7293154873
C       -0.4721909697    2.0743564841   -4.7715303738
O        1.8367986750    2.3581427109   -4.1863761950
O        0.3118184698    2.4965707428   -2.5130662214
O       -1.2649363209    0.8883021615   -4.8700426877
F       -2.7298079376   -1.3213909728   -5.0136973780
Br      -4.2776738842    3.3488477677   -8.4902478045
H       -4.7368518810   -1.3235449082   -6.6492339075
H       -5.4048174963    0.6102294258   -8.1119997472
H       -2.1238445150    2.9028754416   -6.5286208052
H        3.3400158087    3.3339118886   -3.1891199075
H        3.1415966654    1.6139352791   -2.7465728415
H        1.7297378737    2.3707118736   -0.9875079864
H        1.5082545081    3.9775350999   -1.7337141722
H        0.7102981323    0.7380154461   -3.5422908135
H        0.0053294719    2.2906360968   -5.7333442210
H       -1.0825512790    2.9277745223   -4.4593298469
25   
torsion grid (-90,)
C       -5.6930633695    0.1714364950   -2.4547608093
C       -6.2933059602    1.4379822895   -2.4911701541
C       -4.0883601438    2.4592760415   -2.2552912940
C       -3.4908240216    1.1931130889   -2.2162297310
C       -4.3202719554    0.0612528532   -2.3196087184
C       -5.4771955978    2.5594697147   -2.3904152949
C        2.1297156641    2.5843287234   -1.3614729120
C        1.4643061629    2.2892653829   -0.0220752163
C        0.1218087749    1.5565480473   -1.7577459391
C       -1.2945504164    2.0886098305   -1.9521818371
O        1.0172014261    2.5415501089   -2.2613974288
O        0.4453380143    1.3482838862   -0.3827701003
O       -2.1587846491    0.9595658199   -2.0897852024
F       -3.7465038919   -1.1623833777   -2.2851298181
Br      -6.2666113957    4.3089640930   -2.4340895790
H       -6.2880401015   -0.7336893712   -2.5297390162
H       -7.3678913202    1.5363752212   -2.5951831456
H       -3.4897439048    3.3580728589   -2.1835155385
H        2.5847320352    3.5742300727   -1.4310998592
H        2.8675827403    1.8144111610   -1.6237510044
H        2.1236092989    1.8178181362    0.7103242729
H        1.0184132395    3.1943142245    0.4117467543
H        0.2437557043    0.5988081044   -2.2804409402
H       -1.3245963237    2.6993189392   -2.8620727435
H       -1.5782742971    2.6981202689   -1.0870083940
25   
torsion grid (-75,)
C       -5.3285537347   -0.7867702046   -2.4195142562
C       -6.1167317359    0.3561010236   -2.6149331941
C       -4.0982272348    1.7274945652   -2.5356415108
C       -3.3128045454    0.5847888554   -2.3373019587
C       -3.9566750977   -0.6652625578   -2.2841334491
C       -5.4844798914    1.5935059771   -2.6689606857
C        1.8165189357    3.0164916392   -1.2602759271
C        1.0999832110    2.4081480750   -0.0598887089
C        0.1966031494    1.5479460800   -1.9882953482
C       -1.2818168777    1.8311487155   -2.2270603085
O        0.9116379363    2.7312711988   -2.3353753390
O        0.4859606357    1.2460597848   -0.6297815342
O       -1.9625987757    0.5782876523   -2.1908741538
F       -3.2019477345   -1.7707128213   -2.0963042644
Br      -6.5353433413    3.1787108964   -2.9316320518
H       -5.7757714795   -1.7749367797   -2.3706061783
H       -7.1924384509    0.2731273050   -2.7207806847
H       -3.6462053798    2.7095763907   -2.5875234099
H        1.9460226443    4.0994472911   -1.2034731317
H        2.7859495459    2.5337880831   -1.4383939927
H        1.7655552676    2.0806322622    0.7412864933
H        0.3430373836    3.0924449852    0.3469290739
H        0.5231784942    0.6916669046   -2.5913774508
H       -1.4023171508    2.3070695243   -3.2078599276
H       -1.6564898231    2.5038901941   -1.4463921934
25   
torsion grid (-60,)
C       -5.5579249177   -0.6137458525   -2.0623169963
C       -6.3503729649    0.5178223098   -2.3010631120
C       -4.3258433192    1.8778210887   -2.4153621498
C       -3.5357355804    0.7462623482   -2.1746891345
C       -4.1806939058   -0.4925595181   -2.0017142093
C       -5.7174452980    1.7440073742   -2.4728251920
C        1.5516159107    3.1071756397   -1.1891411377
C        0.8789485842    2.2614356586   -0.1119771670
C       -0.0008898123    1.6915583911   -2.1427287203
C       -1.4946237202    1.9737992282   -2.2813468627
O        0.6840880310    2.9290060709   -2.3194759140
O        0.3471071523    1.1694296196   -0.8722879849
O       -2.1804923283    0.7404525510   -2.0872456592
F       -3.4221650101   -1.5872185035   -1.7721272856
Br      -6.7763012231    3.3123750158   -2.7973833074
H       -6.0057852905   -1.5929004310   -1.9225954772
H       -7.4301580674    0.4349874742   -2.3501631757
H       -3.8734700414    2.8510190123   -2.5564131587
H        1.5958373714    4.1735654747   -0.9563263778
H        2.5571066886    2.7358598602   -1.4233141776
H        1.5669726514    1.8529587968    0.6305894579
H        0.0770789807    2.8142009152    0.3957302252
H        0.3181013315    0.9549245831   -2.8902590130
H       -1.6935183320    2.3840313348   -3.2791748269
H       -1.7986961084    2.7080954728   -1.5249647575
25   
torsion grid (-45,)
C       -2.8015651205   -3.4396168074   -0.6753741149
C       -2.5699873419   -3.0618862066    0.6534480966
C       -1.8605497335   -0.8613947260   -0.1316828621
C       -2.0864385171   -1.2406520936   -1.4597596822
C       -2.5606792645   -2.5417093659   -1.7020831791
C       -2.1011544707   -1.7747174530    0.8967940863
C        1.7090249802    1.9157023793   -1.1230845447
C        1.4216197848    0.5317262835   -0.5473992069
C        0.1290308885    0.9014841988   -2.4258981064
C       -1.4076103938    0.8682201905   -2.4135057937
O        0.5445033149    2.1612186427   -1.9245555275
O        0.7138280406   -0.1132984946   -1.6140141804
O       -1.9124864446   -0.4565869825   -2.5594108068
F       -2.7844107506   -2.9186263846   -2.9819075440
Br      -1.7399020733   -1.2250820717    2.7026191086
H       -3.1674295008   -4.4318548650   -0.9213033911
H       -2.7474864281   -3.7570156217    1.4661111267
H       -1.4833284914    0.1220433054    0.1100386509
H        1.7772356586    2.7081471392   -0.3754485053
H        2.6112415291    1.9141829438   -1.7486962661
H        2.3184131804   -0.0523473676   -0.3290635399
H        0.7967113841    0.5869213733    0.3537222753
H        0.5022216938    0.7421618869   -3.4475287348
H       -1.7832606823    1.4234770250   -3.2758750871
H       -1.7855988926    1.3511669164   -1.5080433002
25   
torsion grid (-30,)
C       -2.8499696341   -3.4202270050   -0.7932561955
C       -2.7046186279   -2.9771089812    0.5276961818
C       -2.0796147013   -0.7722901469   -0.3155317372
C       -2.2159295429   -1.2189773934   -1.6353935294
C       -2.6068616562   -2.5526496341   -1.8450170789
C       -2.3202153261   -1.6566672715    0.7382558839
C        1.4670019561    1.7117801121   -0.9181247240
C        1.2365959894    0.2265590994   -0.6454930639
C       -0.0130527145    0.9360510977   -2.4609943047
C       -1.5486813180    0.8657472413   -2.6229418974
O        0.2950774766    2.0674046173   -1.6648514745
O        0.5319968818   -0.2116447723   -1.8163746883
O       -2.0284338656   -0.4680567382   -2.7555103078
F       -2.7449576780   -2.9926992801   -3.1165922505
Br      -2.0780336028   -1.0194624025    2.5353322807
H       -3.1480499991   -4.4408356222   -1.0131962327
H       -2.8832293584   -3.6482309869    1.3600358319
H       -1.7723639706    0.2420255434   -0.1000342648
H        1.4980617812    2.3341654676   -0.0222006572
H        2.3705646679    1.8788198216   -1.5197192903
H        2.1591992362   -0.3526453311   -0.5600584714
H        0.6200854604    0.0648576095    0.2473150929
H        0.4723006471    1.0137069766   -3.4450955122
H       -1.8378367961    1.3670992885   -3.5485584513
H       -2.0288225843    1.3867749537   -1.7897187319
25   
torsion grid (-15,)
C       -2.8202694934   -3.4037059659   -0.7589747816
C       -2.6654407248   -2.9114730557    0.5436743398
C       -2.0401507028   -0.7411345385   -0.3845448472
C       -2.1876632728   -1.2374165941   -1.6858697177
C       -2.5829197688   -2.5767048187   -1.8442196713
C       -2.2771120825   -1.5850394681    0.7028917947
C        1.2999141853    1.5760875329   -0.7057869675
C        1.2691334538    0.0467595206   -0.7668304122
C       -0.0616413162    0.9835348911   -2.4180980045
C       -1.5743389729    0.8275675859   -2.7238267382
O        0.0844664088    1.9341432856   -1.3753205773
O        0.5367887466   -0.2273472574   -1.9717766935
O       -1.9976203873   -0.5262548003   -2.8309814992
F       -2.7314211407   -3.0627324318   -3.0977693110
Br      -2.0222912518   -0.8817325558    2.4733952498
H       -3.1224930075   -4.4310419558   -0.9382070181
H       -2.8406618339   -3.5506172815    1.4015411979
H       -1.7233899596    0.2792085390   -0.2122537737
H        1.2615387532    1.9839528107    0.3055202661
H        2.1667653521    1.9882064243   -1.2400253903
H        2.2625316181   -0.4027801764   -0.8470879004
H        0.7371626482   -0.3879751793    0.0869830241
H        0.4824910981    1.3218479223   -3.3131348851
H       -1.7960354494    1.2640609748   -3.6990684272
H       -2.1503123391    1.3681792443   -1.9666193781
25   
torsion grid (0,)
C       -3.1772397571   -2.5146558031   -1.7740535143
C       -3.3624149778   -1.8277823715   -0.5664976595
C       -2.2173437542    0.1045120987   -1.5271852775
C       -2.0259484522   -0.5872930357   -2.7293829820
C       -2.5214681877   -1.8993295018   -2.8272554343
C       -2.8770279531   -0.5276040305   -0.4703497937
C        1.1492034534    1.7475839934   -0.8228528735
C        1.1338508441    0.2257072069   -0.9952100119
C        0.4689463233    1.2959265542   -2.9421918695
C       -0.8370982265    1.2088834678   -3.7769546605
O        0.2600871504    2.1886835285   -1.8558348577
O        0.8463356347    0.0436460832   -2.3912848884
O       -1.4082546370   -0.0924330319   -3.8357519073
F       -2.3460119051   -2.5720490992   -3.9872668025
Br      -3.0868616144    0.4411203830    1.1763165636
H       -3.5376703731   -3.5308292303   -1.9021884531
H       -3.8673127395   -2.3011594352    0.2679230554
H       -1.8355390014    1.1093813602   -1.4011435015
H        0.7512851118    2.0891491704    0.1340928014
H        2.1525677605    2.1664659307   -0.9788348660
H        2.0952076175   -0.2427699490   -0.7671281853
H        0.3430843245   -0.2464062535   -0.4026100400
H        1.2954896848    1.6679950032   -3.5673379762
H       -0.6214140733    1.4518869572   -4.8182952823
H       -1.5521024981    1.9436394830   -3.3914468765
25   
torsion grid (15,)
C       -3.1217804894   -2.4543695744   -1.7464025213
C       -3.3743176285   -1.7095519951   -0.5861527813
C       -2.2306715273    0.1985401617   -1.5993847864
C       -1.9699049510   -0.5513465472   -2.7522198834
C       -2.4330579216   -1.8790869823   -2.8009193762
C       -2.9212912028   -0.3951910212   -0.5394901635
C        1.0389472275    1.6237126012   -0.8026702344
C        1.1942083570    0.1522801992   -1.1841875022
C        0.5127127566    1.3988477211   -3.0171729519
C       -0.7582080983    1.2022503875   -3.8822243414
O        0.1840874113    2.1244248726   -1.8387776173
O        1.1011633225    0.1708638281   -2.6176136941
O       -1.3095230792   -0.1096249426   -3.8547875556
F       -2.1917958832   -2.6069309373   -3.9144683166
Br      -3.2199272013    0.6505138839    1.0448234347
H       -3.4545042965   -3.4840441803   -1.8358385992
H       -3.9045650329   -2.1506570652    0.2502553923
H       -1.8714214484    1.2152529817   -1.5125153619
H        0.5377297399    1.7833047852    0.1538007947
H        2.0007339013    2.1535266380   -0.8139521585
H        2.1630870365   -0.2698688120   -0.9059324172
H        0.3882376766   -0.4618470562   -0.7681611627
H        1.2572024074    1.9656757150   -3.5970765608
H       -0.4991522659    1.3502382777   -4.9317972588
H       -1.4994822261    1.9580295060   -3.5982400996
25   
torsion grid (30,)
C       -2.8709731437   -2.7174175244   -1.1203724878
C       -3.1020421783   -2.0057192403    0.0640739547
C       -2.0048375770   -0.0576336115   -0.9237011392
C       -1.7803621869   -0.7706823225   -2.1082104913
C       -2.2236764691   -2.1038056241   -2.1800802656
C       -2.6628001096   -0.6871527068    0.1363205727
C        1.3094397768    1.1330187533   -0.6259085349
C        1.6093495454   -0.0553936660   -1.5359672551
C        0.4991232881    1.5301938251   -2.7682525119
C       -0.8676116543    1.1014734885   -3.3390229026
O        0.3613910700    1.8939458923   -1.3895463540
O        1.4783843626    0.5165487111   -2.8437619823
O       -1.1462687721   -0.2937027149   -3.2147398753
F       -2.0059583022   -2.7977817565   -3.3201438604
Br      -2.9429186509    0.3097839792    1.7537611161
H       -3.1943894478   -3.7482598103   -1.2282857464
H       -3.6065531265   -2.4745215454    0.9013414505
H       -1.6421063129    0.9570976041   -0.8200557860
H        0.8411733935    0.8517904364    0.3206520873
H        2.2041626989    1.7373684643   -0.4334482651
H        2.6269192686   -0.4391996312   -1.4400528300
H        0.8908715587   -0.8702397856   -1.3950430729
H        0.8609537338    2.3969508317   -3.3370814543
H       -0.8527755451    1.2712358127   -4.4187457788
H       -1.6602805186    1.7172704247   -2.9017825788
25   
torsion grid (45,)
C       -2.8584364144   -2.7129138990   -1.0120296119
C       -3.2142877198   -1.9572466633    0.1120710384
C       -2.0411967252   -0.0359887617   -0.8382474945
C       -1.6986591673   -0.7896638218   -1.9679907657
C       -2.1169566692   -2.1309374799   -2.0275120130
C       -2.7969333447   -0.6306668071    0.1755953820
C        1.4613601174    0.9595927248   -0.6860252087
C        1.8709710553    0.0134614312   -1.8140817026
C        0.5017735289    1.6188667208   -2.6985280698
C       -0.8067289480    1.0553560510   -3.2627008514
O        0.4176930364    1.7492615641   -1.2781771749
O        1.6173736794    0.8014734483   -2.9857829345
O       -0.9649550439   -0.3467070200   -3.0282780961
F       -1.7815821526   -2.8661359134   -3.1124034055
Br      -3.2525383942    0.4231383181    1.7150992716
H       -3.1596768167   -3.7514745357   -1.1095452699
H       -3.7969649322   -2.3986248830    0.9127183129
H       -1.6882029052    0.9819125184   -0.7360114325
H        1.0527680330    0.4447100630    0.1872220840
H        2.2863142802    1.6134963820   -0.3795722864
H        2.9319068855   -0.2438837299   -1.8072946380
H        1.2650737747   -0.8983776350   -1.8270053583
H        0.6802936870    2.6051442051   -3.1483577498
H       -0.7785549985    1.1563212359   -4.3513199216
H       -1.6577617930    1.6282183724   -2.8795303540
25   
torsion grid (60,)
C       -2.7345151257   -2.4989583741   -0.7720567604
C       -3.1487374236   -1.6573954560    0.2677155746
C       -2.0106026677    0.2096885996   -0.8231036102
C       -1.6113209733   -0.6300615239   -1.8702451544
C       -1.9827860166   -1.9852731549   -1.8162582510
C       -2.7760332752   -0.3168510996    0.2207259144
C        1.6878063951    0.8329214737   -0.9617019863
C        2.1057417534    0.1472982768   -2.2663496292
C        0.5548545887    1.7446464922   -2.7737531885
C       -0.7364472575    1.1184912581   -3.3061380265
O        0.6010759389    1.6892969901   -1.3530611220
O        1.7124996374    1.1002152416   -3.2664477387
O       -0.8689774919   -0.2614981348   -2.9525263052
F       -1.5891903913   -2.8037263160   -2.8197562661
Br      -3.3085385985    0.8536402084    1.6464909441
H       -2.9983429432   -3.5521029156   -0.7818839425
H       -3.7404421827   -2.0441632770    1.0896912218
H       -1.6899424305    1.2420732112   -0.7971939425
H        1.3265469750    0.1313152637   -0.2049500639
H        2.4922909359    1.4471676536   -0.5419920624
H        3.1838346850   -0.0018755884   -2.3524108048
H        1.5821929724   -0.8018284500   -2.4174876353
H        0.5938637919    2.7917279989   -3.1040368102
H       -0.7019539007    1.1402000297   -4.3986629847
H       -1.6033071789    1.6978810237   -2.9699915018
25   
torsion grid (75,)
C       -2.6014075203   -0.9160074204   -5.3586056650
C       -2.5029289715   -2.2464393371   -4.9350332329
C       -2.1618754496   -1.4694557060   -2.6519737164
C       -2.2591269219   -0.1401909073   -3.0753193997
C       -2.4929712116    0.1119295207   -4.4334798122
C       -2.2906314765   -2.5021417466   -3.5805238467
C        1.4769878692   -0.5209672582   -2.0207892225
C        1.1294776885   -0.4911832868   -3.5136041211
C        0.2331063260    1.3357855868   -2.3908255566
C       -1.1910090491    1.8654091700   -2.2722243138
O        0.4780095014    0.3229029822   -1.4403783290
O        0.4744530711    0.7750698280   -3.6835943374
O       -2.1871455276    0.8450733083   -2.1273341332
F       -2.6042795718    1.3955117910   -4.8551615579
Br      -2.1387778621   -4.3175319649   -2.9748878854
H       -2.7714409885   -0.6706678139   -6.4025496701
H       -2.5926066531   -3.0586931160   -5.6478024882
H       -1.9727745428   -1.6607883191   -1.6017304982
H        1.3896700897   -1.5099179181   -1.5675333535
H        2.4792672199   -0.1136276044   -1.8285429131
H        2.0123086438   -0.5270682754   -4.1584122835
H        0.4383461844   -1.2938052646   -3.7899268377
H        0.9307987788    2.1802719230   -2.2476191684
H       -1.3948221119    2.5031023380   -3.1372953175
H       -1.2753362500    2.4599818037   -1.3601042498
25   
torsion grid (90,)
C       -1.9473917752   -0.9713728905   -5.7175608305
C       -1.6342525906   -2.3068863810   -5.4443163590
C       -1.5680381802   -1.7809038611   -3.0672931789
C       -1.8769260056   -0.4440522314   -3.3405971761
C       -2.0769807345   -0.0642378079   -4.6742164877
C       -1.4556855631   -2.6929569170   -4.1150371400
C        1.7381135481   -0.5452469439   -2.3051571863
C        1.5381716483   -0.0991917780   -3.7553602997
C        0.3348975909    1.2392005242   -2.2862223445
C       -1.1600389724    1.5727786407   -2.2734935613
O        0.6020863240    0.0171786882   -1.6385330204
O        0.8357469771    1.1463959329   -3.6263964214
O       -2.0154772091    0.4211170196   -2.2867853279
F       -2.3994841177    1.2220933440   -4.9552857109
Br      -1.0079326997   -4.5162088274   -3.7143952717
H       -2.1030110896   -0.6287024098   -6.7359933176
H       -1.5349503640   -3.0249479045   -6.2508078757
H       -1.4008803394   -2.0665087897   -2.0352752752
H        1.7077728534   -1.6276878150   -2.1676695454
H        2.6672901195   -0.1420559741   -1.8797344757
H        2.4785267761    0.0777760055   -4.2845157790
H        0.9266400819   -0.8118452612   -4.3191765020
H        0.8787000489    2.0650917531   -1.7963753178
H       -1.3690307622    2.2453672403   -3.1094399853
H       -1.4108497769    2.0762432027   -1.3373691978
25   
torsion grid (105,)
C       -1.9104974583   -1.0235152087   -5.7515766929
C       -1.5484757976   -2.3466709136   -5.4831700264
C       -1.4693601934   -1.8191408513   -3.1055239794
C       -1.8205331590   -0.4911703416   -3.3735454792
C       -2.0534575842   -0.1207416630   -4.7048737479
C       -1.3403189841   -2.7254925672   -4.1553263751
C        1.7325229040   -0.6068554421   -2.4165880776
C        1.6256472908    0.0889271071   -3.7710660942
C        0.3860559387    1.2292278023   -2.1820717990
C       -1.1219090488    1.5370740628   -2.3316425731
O        0.6078364004   -0.0787902286   -1.7014308568
O        1.0809138799    1.3714275948   -3.4271601572
O       -1.9658553440    0.3757046097   -2.3220622018
F       -2.4252828079    1.1536213301   -4.9838505737
Br      -0.8290389357   -4.5330740625   -3.7610138849
H       -2.0952875191   -0.6865682843   -6.7670721810
H       -1.4361656493   -3.0616805109   -6.2906914100
H       -1.2796057776   -2.0993699839   -2.0762140860
H        1.6192417797   -1.6918402486   -2.4665348560
H        2.6670352569   -0.3510745762   -1.8998138658
H        2.5898391487    0.2441917679   -4.2608926648
H        0.9489003095   -0.4470933747   -4.4472210926
H        0.8301349343    1.9708721627   -1.5005853144
H       -1.2628544146    2.1337199212   -3.2356694893
H       -1.4631239648    2.1135361554   -1.4693870149
25   
torsion grid (120,)
C       -1.8085903855   -1.1027244903   -5.8269713419
C       -1.4711853022   -2.4299880279   -5.5486962496
C       -1.4063176772   -1.8928364915   -3.1730698424
C       -1.7341763064   -0.5601387403   -3.4491062092
C       -1.9470614763   -0.1929706848   -4.7854893364
C       -1.2816431149   -2.8062917115   -4.2171197004
C        1.7097528469   -0.6098325716   -2.6465409390
C        1.6741915866    0.4241570285   -3.7676091046
C        0.4267177847    1.2100289103   -2.0184914782
C       -1.0669377540    1.4769990487   -2.3804283058
O        0.6672008938   -0.1657419155   -1.7645219721
O        1.3005455426    1.6170627332   -3.0663226549
O       -1.8989343721    0.3076870708   -2.4043441084
F       -2.2979155612    1.0861502819   -5.0754025031
Br      -0.8086209800   -4.6211010847   -3.8098660756
H       -1.9809349920   -0.7679859584   -6.8454411950
H       -1.3648428155   -3.1511459179   -6.3515122065
H       -1.2322197535   -2.1719345995   -2.1406793937
H        1.4700558292   -1.6231805766   -2.9776555178
H        2.6714689488   -0.6054029684   -2.1190259301
H        2.6402361687    0.5999208318   -4.2445568109
H        0.9271185819    0.1656162025   -4.5294509620
H        0.7051660625    1.8052059692   -1.1406912961
H       -1.0997357759    2.0081075944   -3.3343627279
H       -1.5196986295    2.1101572065   -1.6151057000
25   
torsion grid (135,)
C       -2.6084186599   -0.6546953356   -7.2670088939
C       -3.1243237012   -1.9337692076   -7.4847737400
C       -2.9773042600   -2.3722067896   -5.0929032661
C       -2.4531979663   -1.0917221181   -4.8697807576
C       -2.2958589186   -0.2449944325   -5.9756106566
C       -3.3093575839   -2.7738049072   -6.3833737494
C        0.5635430001   -2.5271944548   -5.1542542906
C        1.2188309942   -1.1508922856   -5.2948890443
C        0.2438175992   -1.2395633316   -3.2512356330
C       -0.9054908894   -0.1824796792   -3.2596739040
O       -0.1401279097   -2.4423720439   -3.9031968034
O        1.3840574333   -0.7423704839   -3.9310966240
O       -2.1991373972   -0.7167620246   -3.5802356657
F       -1.8287785662    1.0202003823   -5.7931246370
Br      -4.0190493321   -4.5350408915   -6.6574785168
H       -2.4649854481    0.0417230433   -8.0877408746
H       -3.3814173578   -2.2622259392   -8.4856269140
H       -3.0850514878   -3.0341938261   -4.2417375889
H       -0.1524182785   -2.7463986403   -5.9514512842
H        1.3051765177   -3.3307483685   -5.0903415844
H        2.2045659829   -1.1708107948   -5.7623559136
H        0.5723329228   -0.4480539484   -5.8360663356
H        0.5515821223   -1.4739743559   -2.2282238614
H       -0.6356043787    0.6261698624   -3.9412347581
H       -1.0231793715    0.2382637864   -2.2595406594
25   
torsion grid (150,)
C       -2.4506814398   -0.6984976544   -7.3988135482
C       -2.8724999341   -2.0072445977   -7.6433832535
C       -2.7521240438   -2.4664627962   -5.2540413099
C       -2.3248588888   -1.1563404471   -5.0039668131
C       -2.1966891306   -0.2862582488   -6.0957283928
C       -3.0242171132   -2.8728391474   -6.5571854419
C        0.9356465199   -2.2235360115   -5.1896943996
C        1.6428447448   -0.8782573696   -4.9624096218
C        0.2683171098   -1.2445657296   -3.1981798763
C       -0.8592441937   -0.1915905973   -3.3639806167
O        0.0753507245   -2.3650929999   -4.0476195354
O        1.5163318970   -0.6721362973   -3.5490337930
O       -2.1275916523   -0.7736891989   -3.7048117884
F       -1.8205795104    1.0049938995   -5.8855178758
Br      -3.6030705456   -4.6756241678   -6.8675601983
H       -2.3367649132    0.0166701910   -8.2079833844
H       -3.0832715375   -2.3388453310   -8.6540092472
H       -2.8364999848   -3.1460244154   -4.4142337131
H        0.3332050681   -2.2340801611   -6.1036573927
H        1.6345911575   -3.0656546141   -5.2017386547
H        2.7071023816   -0.8914693433   -5.2031112370
H        1.1569372854   -0.0672822685   -5.5201286453
H        0.3369117152   -1.6019543672   -2.1674999130
H       -0.5591763806    0.5490252344   -4.1065183719
H       -1.0223066107    0.3250860914   -2.4161910147
25   
torsion grid (165,)
C       -0.4346822123   -0.5972107949   -6.9007429745
C       -0.2304019306   -1.9774001495   -6.9685784446
C       -0.7159671985   -2.1301764682   -4.5871979272
C       -0.9154764348   -0.7455062143   -4.5119851037
C       -0.7850472997   -0.0041381051   -5.6950135621
C       -0.3837219895   -2.7258717900   -5.8004375895
C        2.3140342472    1.0135860648   -4.0488238737
C        1.9031341517    2.3888928294   -3.5054304693
C        0.7299158398    0.8099190219   -2.3652160173
C       -0.7348572318    0.9803574537   -2.8103368028
O        1.4807205453    0.0889026880   -3.3335294699
O        1.3396078894    2.0799820420   -2.2222205519
O       -1.3076277376   -0.2415407428   -3.3023147427
F       -0.9976698063    1.3440773699   -5.6819618196
Br      -0.1125561809   -4.6240039639   -5.8612319643
H       -0.3439935104    0.0283907801   -7.7837724143
H        0.0335463633   -2.4524530724   -7.9066722438
H       -0.8121795252   -2.7104766213   -3.6764115336
H        2.1293114900    0.9102703182   -5.1225890638
H        3.3617114717    0.7783170655   -3.8342440595
H        2.7426213250    3.0675992372   -3.3450682471
H        1.1613894923    2.8749635850   -4.1506271540
H        0.7987400957    0.2835724526   -1.4088174585
H       -0.8087740794    1.7765751405   -3.5510168406
H       -1.3454685316    1.2506818137   -1.9465714642
25   
torsion grid (180,)
C       -3.4090690424   -1.9791664607   -5.8007899460
C       -4.3402835208   -1.0611563274   -6.3058758940
C       -3.1025633668    0.7481610274   -5.2278267577
C       -2.1715780795   -0.1704124173   -4.7262410338
C       -2.3507927750   -1.5329954983   -5.0287298248
C       -4.1675355188    0.2864032576   -6.0090529445
C        2.5955582728    1.9012439119   -3.0000696913
C        1.9790994788    3.2673270840   -2.6771511181
C        0.3757701969    1.5980342449   -2.7935749995
C       -0.8916707538    1.5127484658   -3.6256213938
O        1.4904343703    1.1822541961   -3.5518119539
O        0.5913372378    2.9677490103   -2.4472252524
O       -1.0928306676    0.1430492066   -3.9626573724
F       -1.4565325975   -2.4225348468   -4.5431205640
Br      -5.4250797188    1.5666643219   -6.6903718121
H       -3.5009648956   -3.0417565892   -6.0040978561
H       -5.1735163840   -1.3972029341   -6.9125305243
H       -3.0066499946    1.8062696153   -5.0207338899
H        3.3877734879    1.9347206948   -3.7496893361
H        2.9661520177    1.4003273904   -2.0949829598
H        2.4017410485    3.7280850468   -1.7794476150
H        2.0586525415    3.9642866303   -3.5186004798
H        0.2900418536    0.9941235509   -1.8760594257
H       -0.7602261895    2.1217418164   -4.5272145396
H       -1.7337431351    1.9015976058   -3.0399590374
