25   
torsion grid (-165,)
C        4.6928056317    1.3880194679   -4.9994514268
C        3.9672029625    0.6063302852   -4.1398862767
C        5.6611786283   -0.7727663924   -4.4900545214
C        1.5093213841    0.1562693589   -4.3216253263
C       -0.7852791421   -0.4028232981   -4.1744576038
C        4.7197555793   -3.3312633127   -6.0670682014
C        2.6096890686    0.9173872750   -3.5901319041
N        4.5306271678   -0.6210900748   -3.8541991959
N        6.4556791014   -1.9272400231   -4.3858832251
O        1.6734577825   -0.6667408486   -5.1984459716
O        6.9940784899   -2.2215489670   -6.8675041060
O        7.1078738368   -4.2107270024   -5.2570279579
O        0.2972454541    0.4825166770   -3.8118198432
S        6.1511299011    0.5808658280   -5.4795513779
S        6.4659324337   -2.9930101385   -5.7464953246
H        4.4329778167    2.3580342791   -5.4037649620
H       -1.6555337407   -0.0346828089   -3.6316260915
H       -0.5481716141   -1.4262081552   -3.8738843077
H       -0.9630097961   -0.3740633475   -5.2516875280
H        4.6877330871   -3.9388170556   -6.9731380904
H        4.3126517562   -3.8799095194   -5.2174295638
H        4.1899251679   -2.3894961556   -6.2135840146
H        2.5495696796    0.6321597741   -2.5348786671
H        2.3893509441    1.9875422005   -3.6398908024
H        6.2326765009   -2.4565870628   -3.5423536526
25   
torsion grid (-150,)
C        4.7525131833    1.2961877375   -5.0281086324
C        3.9633784824    0.5437593822   -4.1985869204
C        5.5979338604   -0.9147424579   -4.5109389180
C        1.4891222243    0.2393272200   -4.4807050449
C       -0.8075353143   -0.2604501592   -4.1814040707
C        4.5594946102   -3.4258871302   -6.1069952252
C        2.6043908775    0.9156276020   -3.6913726434
N        4.4574691381   -0.7118448343   -3.9075986746
N        6.3329697431   -2.1071872522   -4.3958330055
O        1.6358348227   -0.6477697557   -5.2952502903
O        6.8918206137   -2.4152534330   -6.8712631057
O        6.8948953080   -4.4142633905   -5.2689184905
O        0.2776355331    0.6865080834   -4.0625552983
S        6.1810500992    0.4200197582   -5.4748805582
S        6.3144810745   -3.1671878067   -5.7612299201
H        4.5535715085    2.2816073630   -5.4297944482
H       -1.6581044677    0.2081459715   -3.6868760500
H       -0.5405221988   -1.1952260598   -3.6817960864
H       -1.0372630533   -0.4613339937   -5.2301226412
H        4.5127749248   -4.0254849266   -7.0177027545
H        4.1170952228   -3.9613447168   -5.2666449282
H        4.0736104453   -2.4607017808   -6.2534053882
H        2.4838209298    0.5922015923   -2.6520811004
H        2.4468502921    1.9978048622   -3.7041601684
H        6.0664849528   -2.6277951420   -3.5595003013
25   
torsion grid (-135,)
C        4.7613702180    1.3641625029   -5.0020098346
C        3.9323422602    0.6129660298   -4.2117815890
C        5.5585566200   -0.8634121679   -4.4807927031
C        1.4587015674    0.3735414729   -4.5878774744
C       -0.7911606029   -0.1686177197   -4.0555349900
C        4.6513259384   -3.3419159622   -6.2176942875
C        2.5629326265    1.0000774691   -3.7456515300
N        4.3984462995   -0.6533578988   -3.9189169179
N        6.2759040506   -2.0633834021   -4.3406360388
O        1.6122742657   -0.4969744704   -5.4164044761
O        7.0359464405   -2.3136365757   -6.7668038524
O        6.9121367641   -4.3488685598   -5.2150817473
O        0.2369031174    0.8361435339   -4.1950665849
S        6.1962514766    0.4758801438   -5.4041153196
S        6.3718451172   -3.0910914306   -5.7249092760
H        4.5901277952    2.3564269298   -5.3995649989
H       -1.6845461670    0.3651506380   -3.7319222019
H       -0.4918223270   -0.8962310347   -3.2949152255
H       -0.9744371452   -0.6782736203   -5.0039928891
H        4.6778417226   -3.9245808286   -7.1400805885
H        4.1415469353   -3.8915280284   -5.4260181867
H        4.1808567480   -2.3726265630   -6.3859293486
H        2.3952885294    0.6484836633   -2.7217535509
H        2.4281752473    2.0854296285   -3.7284999070
H        5.9472952951   -2.6004484703   -3.5375458766
25   
torsion grid (-120,)
C        4.7555366955    1.3218122391   -4.9852816910
C        3.8793970589    0.5776630094   -4.2417984784
C        5.4852050067   -0.9291710143   -4.4620062083
C        1.4117648506    0.3745824280   -4.6909517176
C       -0.7306659161   -0.2511047627   -3.8763099714
C        4.7214963924   -3.3400056748   -6.3594618624
C        2.5020768663    0.9875811345   -3.8219612969
N        4.3062410812   -0.7029580915   -3.9484472606
N        6.1730665878   -2.1425968648   -4.2979994107
O        1.5857180683   -0.4437227115   -5.5645601355
O        7.1634185524   -2.3411731268   -6.6433183182
O        6.8564488532   -4.4137486916   -5.1683326715
O        0.1698147291    0.7964870202   -4.2915245465
S        6.1890832685    0.4092368465   -5.3393159879
S        6.3885998678   -3.1336527832   -5.6933715578
H        4.6219717377    2.3226039228   -5.3757390384
H       -1.6918234491    0.2299346103   -3.6947891650
H       -0.3645926418   -0.7075093806   -2.9499482795
H       -0.8313933324   -1.0105858649   -4.6559118728
H        4.8294883428   -3.8974130717   -7.2914518831
H        4.1271157912   -3.9011149997   -5.6379673812
H        4.2864369892   -2.3575771070   -6.5458752720
H        2.2992928464    0.6537107753   -2.7979677537
H        2.3807859464    2.0749155176   -3.8214384169
H        5.7731646813   -2.6959944479   -3.5396624161
25   
torsion grid (-105,)
C        4.7208563737    1.3347546172   -4.9345208486
C        3.7868254964    0.6012198938   -4.2545729433
C        5.3672850144   -0.9399926777   -4.4068035529
C        1.3350161260    0.4156339693   -4.7949962071
C       -0.6719011255   -0.2508094976   -3.7201665884
C        4.7349026948   -3.2982204558   -6.4271642286
C        2.3997027458    1.0383010133   -3.9012456059
N        4.1662873617   -0.6939101825   -3.9578288052
N        6.0154917911   -2.1710188194   -4.2192539681
O        1.5424898042   -0.3288450278   -5.7227258326
O        7.2037966521   -2.3279418127   -6.4725713746
O        6.7439414442   -4.4300847413   -5.0810305869
O        0.0655342477    0.7806390094   -4.4031068638
S        6.1525699563    0.3946149817   -5.2195969254
S        6.3397092753   -3.1317209636   -5.6134878392
H        4.6326126394    2.3435935093   -5.3169309241
H       -1.6582745982    0.1656909781   -3.5152947474
H       -0.1805174388   -0.5109052774   -2.7747343235
H       -0.7660989236   -1.1406832461   -4.3500849847
H        4.9154899374   -3.8393823557   -7.3574768845
H        4.0709509170   -3.8630080173   -5.7722449448
H        4.3337898298   -2.3048416399   -6.6310642091
H        2.1572206083    0.7544811925   -2.8706645208
H        2.2912455216    2.1261808035   -3.9524647634
H        5.5473600663   -2.7339389940   -3.5085822351
25   
torsion grid (-90,)
C        4.6648563965    1.3984532232   -4.9156112830
C        3.6855760998    0.6661635322   -4.3034788820
C        5.2499834715   -0.8967296572   -4.4013852228
C        1.2540608923    0.4737341556   -4.9215403591
C       -0.5726384082   -0.2796938208   -3.6004836422
C        4.8465759036   -3.2050417841   -6.5573558298
C        2.2895922820    1.1168571374   -4.0054390853
N        4.0294474161   -0.6414716949   -4.0144877192
N        5.8704151863   -2.1379707024   -4.1935850686
O        1.5012643436   -0.1244514414   -5.9391189780
O        7.2974123024   -2.2219886762   -6.3049691142
O        6.7049882017   -4.3664221140   -5.0325819843
O       -0.0417318727    0.7057073788   -4.5043336170
S        6.0983411563    0.4429391694   -5.1410777114
S        6.3515854883   -3.0551105924   -5.5687635170
H        4.6114891605    2.4151863545   -5.2830306889
H       -1.5784168516    0.0538603603   -3.3441632931
H        0.0316111680   -0.3481959748   -2.6874325511
H       -0.6197861292   -1.2591128148   -4.0878151545
H        5.1297869854   -3.7207124082   -7.4764954646
H        4.1178410663   -3.7885473756   -5.9940607120
H        4.4666383028   -2.2069193603   -6.7783446252
H        2.0250150909    0.8920049885   -2.9669572257
H        2.1871147603    2.2011175724   -4.1205323928
H        5.3363170031   -2.7199171790   -3.5479294447
25   
torsion grid (-75,)
C        4.4445607067    1.7888646963   -4.9718242911
C        3.4030709616    1.0998814500   -4.4189504877
C        4.8987261325   -0.5347400064   -4.4455519880
C        0.9801179313    0.8922976975   -5.0241918002
C        0.0503088404   -0.7046965127   -3.5243966537
C        4.8938697727   -2.8093805451   -6.7319181940
C        2.0185131540    1.6153949825   -4.1602594405
N        3.6696026052   -0.2283827240   -4.1279960828
N        5.4426782516   -1.8005647780   -4.1921331386
O        1.0645426466    0.8095566390   -6.2252647602
O        7.2486765048   -1.8519960403   -5.9835562639
O        6.4067297119   -4.0164556869   -4.8962554465
O       -0.1352302573    0.4595947469   -4.3503178333
S        5.8483807288    0.7714691674   -5.1221891225
S        6.1744923023   -2.6918657649   -5.4632272134
H        4.4581786430    2.8091248837   -5.3323259697
H       -0.8710574768   -0.8228429240   -2.9536424497
H        0.8986363145   -0.5868186324   -2.8408423581
H        0.2141352150   -1.5849992446   -4.1541711191
H        5.3455547227   -3.3240013239   -7.5817598663
H        4.0582070915   -3.3841137595   -6.3315461876
H        4.5862800525   -1.8021475629   -7.0153967643
H        1.7667942812    1.5224796030   -3.1008559831
H        1.9550547732    2.6748591895   -4.4251794591
H        4.8117923129   -2.3857430245   -3.6450279754
25   
torsion grid (-60,)
C        4.3856340514    1.8665754863   -4.8707569579
C        3.3070602817    1.2018493952   -4.3606743393
C        4.7855631153   -0.4466116222   -4.2615094934
C        0.9123175880    1.0052686552   -5.0800573506
C        0.1999849793   -0.6497628381   -3.4866399761
C        4.9972451335   -2.7760608438   -6.5000898649
C        1.9182039306    1.7477144529   -4.1918253692
N        3.5429549567   -0.1219637528   -4.0240034368
N        5.2984600941   -1.7098058909   -3.9429412775
O        0.9411955610    1.0798144945   -6.2857347344
O        7.2673219103   -1.7958962126   -5.5491873205
O        6.3246688524   -3.9374515138   -4.4991101246
O       -0.1211884077    0.3778628134   -4.4418758574
S        5.7864432086    0.8342725221   -4.9124518199
S        6.1484635041   -2.6267896524   -5.1159947963
H        4.4304612986    2.8773295342   -5.2545877366
H       -0.7383907815   -0.9027179430   -2.9925381706
H        0.9318308548   -0.3130488764   -2.7462154184
H        0.5980018984   -1.5257543844   -4.0067479310
H        5.5287800088   -3.3099413076   -7.2897561030
H        4.1258886663   -3.3423093313   -6.1698151272
H        4.7207543748   -1.7759746485   -6.8361309460
H        1.6199241256    1.7097919629   -3.1410661220
H        1.8913676609    2.7912158705   -4.5142449844
H        4.6273756054   -2.2826781690   -3.4323084681
25   
torsion grid (-45,)
C        4.4842497702    1.7752253283   -4.8657146399
C        3.3926876210    1.1085697778   -4.3871498319
C        4.8513057795   -0.5603275608   -4.3224682474
C        1.0090067260    0.9415575923   -5.1368704086
C        0.2043414942   -0.4945403928   -3.3740522962
C        4.9888595692   -2.8180571833   -6.6262708743
C        2.0065149127    1.6625781477   -4.2207307747
N        3.6102286311   -0.2272189575   -4.0871228531
N        5.3481501517   -1.8388531040   -4.0404100682
O        1.0681642984    1.0308172939   -6.3412192983
O        7.2925814119   -1.9125865293   -5.6795913493
O        6.3236329774   -4.0680726428   -4.6838833282
O       -0.0445054862    0.3143261038   -4.5439274602
S        5.8726502774    0.7275233337   -4.9243512850
S        6.1639318567   -2.7354669085   -5.2567139654
H        4.5441954938    2.7956369292   -5.2208090217
H       -0.5806993118   -1.2517311579   -3.3692039217
H        0.1305030432    0.1061060475   -2.4605766515
H        1.1852304897   -0.9715232520   -3.4262011704
H        5.4982174478   -3.3360972460   -7.4407172165
H        4.1118280627   -3.3781574413   -6.3006057412
H        4.7261289684   -1.8028435738   -6.9259026530
H        1.7036573068    1.6068439286   -3.1722082962
H        1.9881389007    2.7119017106   -4.5239355527
H        4.6666029088   -2.4161125258   -3.5485692253
25   
torsion grid (-30,)
C        4.4598147531    1.7768022288   -4.8593564223
C        3.3704682001    1.1121525139   -4.3724182633
C        4.8300586371   -0.5563285951   -4.3102644102
C        0.9940656244    0.9904367864   -5.1523651936
C        0.2518970785   -0.4893693366   -3.3775012404
C        4.9975553584   -2.8331487406   -6.6036227829
C        1.9870586489    1.6750475261   -4.2031648483
N        3.5899721455   -0.2227003715   -4.0699592442
N        5.3276626379   -1.8328700254   -4.0222421392
O        1.0060359198    1.2061891511   -6.3432680502
O        7.2857508242   -1.9034271756   -5.6436292334
O        6.3242153846   -4.0590618874   -4.6407398542
O        0.0196384436    0.2104842098   -4.6172827884
S        5.8479944718    0.7292914894   -4.9225292696
S        6.1598018561   -2.7319033974   -5.2245545063
H        4.5174833373    2.7960957152   -5.2178622349
H       -0.4639044190   -1.3123151962   -3.3725745689
H        0.0538192433    0.1614461249   -2.5188254943
H        1.2705989925   -0.8788797267   -3.3292942972
H        5.5173345778   -3.3544640662   -7.4093667106
H        4.1211810476   -3.3961899327   -6.2812594086
H        4.7315831927   -1.8219300062   -6.9137699848
H        1.6777802395    1.5977198128   -3.1582469080
H        1.9860657484    2.7304955108   -4.4821591180
H        4.6473754983   -2.4101356279   -3.5288507912
25   
torsion grid (-15,)
C        4.4490646557    1.7778868992   -4.8544594587
C        3.3647204307    1.1141807760   -4.3545769690
C        4.8277650190   -0.5510994352   -4.2933840858
C        1.0015513229    1.0188807388   -5.1637491025
C        0.2845317917   -0.4991769589   -3.3976130119
C        4.9842157164   -2.8441489642   -6.5727544104
C        1.9817671096    1.6812869434   -4.1861031537
N        3.5890656702   -0.2181005833   -4.0451905334
N        5.3295662629   -1.8249960114   -4.0012113456
O        0.9717481206    1.3324764881   -6.3333499464
O        7.2760760043   -1.8996796219   -5.6359494062
O        6.3296473516   -4.0519152221   -4.6114936903
O        0.1196493751    0.1006003502   -4.6976235150
S        5.8384651174    0.7324598321   -4.9217917130
S        6.1562655236   -2.7293747664   -5.2030439183
H        4.5015923097    2.7948113598   -5.2203523788
H       -0.3871368292   -1.3584478124   -3.3927171808
H       -0.0196513291    0.1942337756   -2.6062417648
H        1.3137746987   -0.8285453006   -3.2434653573
H        5.4992771199   -3.3701503234   -7.3784756417
H        4.1116629171   -3.4068968228   -6.2396579728
H        4.7133985734   -1.8359422219   -6.8884764413
H        1.6639375828    1.5851750425   -3.1455544021
H        1.9913264578    2.7410918506   -4.4452469120
H        4.6537994979   -2.4006162644   -3.4997687304
25   
torsion grid (0,)
C        4.4090488677    1.7833465263   -4.8869009481
C        3.3520864783    1.1179250540   -4.3322929039
C        4.8386400764   -0.5266433517   -4.2858539788
C        0.9918911188    1.0782667940   -5.1507538120
C        0.3221150155   -0.5778322931   -3.4875290362
C        4.9548794918   -2.8885785135   -6.5043272196
C        1.9698900341    1.6791831836   -4.1322583195
N        3.6051102650   -0.2037208382   -4.0010503594
N        5.3685179285   -1.7855608842   -3.9786658458
O        0.8939386390    1.5309598583   -6.2704371526
O        7.2577585880   -1.8721323021   -5.6773655453
O        6.3913104934   -4.0103661802   -4.5571258966
O        0.2338588033    0.0111163410   -4.7994387292
S        5.8083180716    0.7542453647   -4.9809664148
S        6.1708215852   -2.7097320629   -5.1806008990
H        4.4339614513    2.7923927554   -5.2767467466
H       -0.2906336494   -1.4786105847   -3.5391443357
H       -0.0968080388    0.0939519741   -2.7310586242
H        1.3521983777   -0.8426333368   -3.2419298385
H        5.4512245112   -3.4313803707   -7.3106556024
H        4.1045724134   -3.4550649350   -6.1234376343
H        4.6555498362   -1.8956024703   -6.8418406146
H        1.6514834342    1.5208439268   -3.0995295369
H        1.9832957280    2.7519773856   -4.3273166537
H        4.7215192105   -2.3564574210   -3.4357546183
25   
torsion grid (15,)
C        4.3491145372    1.7642794935   -4.9399072481
C        3.3386168756    1.1020063293   -4.3007375482
C        4.8471293224   -0.5226244518   -4.3038545290
C        0.9690140154    1.1303478701   -5.0756840767
C        0.3528855062   -0.6781866501   -3.5616971064
C        4.8666267721   -2.9397486851   -6.4623516397
C        1.9634477090    1.6553168998   -4.0323045867
N        3.6298548560   -0.2066023192   -3.9502747582
N        5.4138426922   -1.7651753164   -3.9943941567
O        0.7788252916    1.7176187479   -6.1182087708
O        7.2013055716   -1.8780789945   -5.7988018831
O        6.4270355750   -3.9942113260   -4.5739894778
O        0.3507194621   -0.0577646827   -4.8616582955
S        5.7536236751    0.7496251132   -5.0939572484
S        6.1552267170   -2.7128743966   -5.2169758843
H        4.3355607002    2.7626040895   -5.3570671634
H       -0.2215632279   -1.5971289599   -3.6844606736
H       -0.1495165973   -0.0414204307   -2.8263834428
H        1.3686471687   -0.9154778237   -3.2387544789
H        5.3222738147   -3.4976739136   -7.2822409505
H        4.0471991102   -3.5055614905   -6.0180725248
H        4.5355160244   -1.9593664721   -6.8068985830
H        1.6662061126    1.4157442526   -3.0093058808
H        1.9770136219    2.7394428550   -4.1452421956
H        4.8089801488   -2.3288577126   -3.3979288090
25   
torsion grid (30,)
C        4.4590431069    1.6165487740   -5.0228694181
C        3.4591945969    0.9982293865   -4.3242130188
C        4.9325921564   -0.6577056611   -4.3274774548
C        1.0997097426    1.1709456419   -5.1030547995
C        0.4429703168   -0.7659391438   -3.7915802860
C        4.7747416160   -3.1533981366   -6.3822567846
C        2.1071811561    1.5927047210   -4.0270237845
N        3.7362185758   -0.3033160427   -3.9399578823
N        5.4863498022   -1.9006866356   -3.9960951863
O        0.8430249120    1.8820718218   -6.0491959978
O        7.1689823956   -2.1328895904   -5.8880270929
O        6.4084392612   -4.1779794157   -4.5399732576
O        0.5934327072   -0.0890584026   -5.0553401022
S        5.8341677804    0.5667587308   -5.1946040445
S        6.1351433834   -2.9150021414   -5.2178140798
H        4.4496111529    2.6008728651   -5.4724569107
H       -0.0901985361   -1.6886151641   -4.0234804033
H       -0.1630782980   -0.1685831062   -3.1029679505
H        1.4141725064   -1.0001738693   -3.3499186933
H        5.1709814309   -3.7519301700   -7.2043576329
H        3.9681575612   -3.6817856669   -5.8731426556
H        4.4480405179   -2.1779233807   -6.7444572226
H        1.7930892873    1.2944037859   -3.0241910431
H        2.1600139601    2.6806473880   -4.0646738381
H        4.9003073140   -2.4243802212   -3.3467324485
25   
torsion grid (45,)
C        4.4864415110    1.5805732117   -5.0352826666
C        3.4885761720    0.9803597124   -4.3176127608
C        4.9449021518   -0.6896656256   -4.3172281812
C        1.1112411278    1.1814482114   -5.0573924949
C        0.4774787511   -0.8258444172   -3.8690042778
C        4.7232977751   -3.2074142549   -6.3355905885
C        2.1490299875    1.5944422743   -4.0076424522
N        3.7574866842   -0.3181998768   -3.9192220944
N        5.4896214667   -1.9345562420   -3.9776185195
O        0.7257078960    1.9420971442   -5.9163143137
O        7.1378120799   -2.2103355696   -5.8940027472
O        6.3756592572   -4.2294786826   -4.5083186124
O        0.7554720927   -0.1325923882   -5.1026555035
S        5.8482171760    0.5142685690   -5.2111593324
S        6.1059998587   -2.9715584004   -5.1970581356
H        4.4829678331    2.5606591966   -5.4943970741
H        0.0459181142   -1.7821497127   -4.1665429013
H       -0.2567029919   -0.2722980718   -3.2750690057
H        1.3921624439   -0.9975135050   -3.2961530662
H        5.0984173709   -3.8199500636   -7.1572843354
H        3.9195604715   -3.7203743116   -5.8066197832
H        4.4013987803   -2.2323859871   -6.7032034669
H        1.8419877540    1.2968668888   -3.0010330260
H        2.2109987927    2.6819062106   -4.0407982514
H        4.9066624466   -2.4431002884   -3.3135840842
25   
torsion grid (60,)
C        4.5387776082    1.4682480513   -4.9660921801
C        3.5479389434    0.9308737108   -4.1904457142
C        4.9430362624   -0.7899548091   -4.1825109930
C        1.1550441048    1.2483061801   -4.8763084713
C        0.4960683709   -0.8658225436   -3.9404233465
C        4.4357244157   -3.3596032077   -6.0562612756
C        2.2424533824    1.6003547713   -3.8569336503
N        3.7865148906   -0.3605407848   -3.7533384376
N        5.4576325773   -2.0427911641   -3.8221853399
O        0.6279793059    2.0768855174   -5.5809564003
O        6.9283237499   -2.4860887611   -5.8509433753
O        6.1753187872   -4.4040257906   -4.3241810247
O        0.9186867279   -0.0858365177   -5.0754430682
S        5.8528383007    0.3462288379   -5.1541632637
S        5.9176232388   -3.1598428694   -5.0421299446
H        4.5548159481    2.4320693513   -5.4584841293
H        0.2268763311   -1.8440855130   -4.3404903299
H       -0.3866250567   -0.4145549293   -3.4753573412
H        1.3038388674   -0.9807804559   -3.2118780922
H        4.7116068217   -4.0157678783   -6.8835266129
H        3.6547636771   -3.8140375878   -5.4459163028
H        4.1314271673   -2.3813095672   -6.4301818987
H        1.9344907457    1.2969837259   -2.8512617833
H        2.3449879865    2.6855174694   -3.8671244604
H        4.8957057001   -2.4946352377   -3.1011552805
25   
torsion grid (75,)
C        4.5522449301    1.5377830375   -5.0321403330
C        3.5779531816    1.0013175165   -4.2350439970
C        4.9890157400   -0.7064544712   -4.2280827766
C        1.1197757561    1.2544206164   -4.8110901054
C        0.6222033948   -0.9871230152   -4.1518384160
C        4.3855049110   -3.2801147316   -6.0401634032
C        2.2729690954    1.6608142043   -3.8890020433
N        3.8365200097   -0.2813128490   -3.7845627506
N        5.5199687003   -1.9530404866   -3.8682859144
O        0.3435554399    2.0531623337   -5.2780550155
O        6.8960630804   -2.4380316174   -5.9543095920
O        6.1868673707   -4.3290950490   -4.3743661805
O        1.0776967326   -0.0719250204   -5.1656834357
S        5.8728262659    0.4248494263   -5.2283974176
S        5.9134485545   -3.0891989923   -5.0942536988
H        4.5533377075    2.4962811852   -5.5352154599
H        0.6152419046   -1.9718436981   -4.6206393806
H       -0.3945923064   -0.7273009311   -3.8383616099
H        1.3029590468   -1.0010618234   -3.2949827855
H        4.6172851168   -3.9443967424   -6.8744299932
H        3.6287217765   -3.7227080254   -5.3918078060
H        4.0735946494   -2.3012578348   -6.4062969667
H        2.0023046783    1.3967731173   -2.8600162212
H        2.3501672714    2.7472134202   -3.9400746293
H        4.9871721712   -2.3936852918   -3.1187194076
25   
torsion grid (90,)
C        4.1760446539    1.2366027963   -5.0705742304
C        3.6872543588    0.4079950793   -4.0962232406
C        5.6169280890   -0.6118828570   -4.4567145579
C        1.3636877569   -0.5592951414   -4.0132245150
C       -0.8310659622    0.3626963934   -4.0241851985
C        5.3370843471   -3.4292032827   -5.8820121684
C        2.3307872303    0.4852179308   -3.4674702935
N        4.5174038549   -0.6408077997   -3.7531121243
N        6.6530993387   -1.5458834759   -4.2977449082
O        1.6207165737   -1.3738902247   -4.8645963456
O        7.2651585545   -1.8301116839   -6.7595874098
O        7.8638013342   -3.6359518083   -5.0432790158
O        0.1269590852   -0.5078568251   -3.3996310927
S        5.7460247856    0.7114131050   -5.5921990876
S        6.9406978234   -2.6477270197   -5.5944403278
H        3.6914139140    2.0863013527   -5.5343965423
H       -1.7482400264    0.2741739627   -3.4414547618
H       -1.0190714331    0.0502958756   -5.0570242457
H       -0.4918041127    1.4061827613   -4.0057073887
H        5.4621071675   -4.0788939517   -6.7499207815
H        5.0703686186   -4.0093370681   -4.9982529145
H        4.5941872565   -2.6564579463   -6.0825218111
H        2.3938112148    0.3321527664   -2.3846735097
H        1.8823910638    1.4735619007   -3.6128809678
H        6.5593099595   -2.0589915434   -3.4205991576
25   
torsion grid (105,)
C        4.2926477675    1.2328194439   -5.0951733823
C        3.7511711764    0.4331987209   -4.1253571766
C        5.6284387941   -0.6874976236   -4.4647267136
C        1.3856842618   -0.4250302938   -4.0210790871
C       -0.8796346986    0.2852835249   -4.0553661825
C        5.3052562693   -3.4763605712   -5.9561833926
C        2.3988137704    0.5863555494   -3.5021157160
N        4.5214356137   -0.6582343832   -3.7733004413
N        6.6148198869   -1.6696135429   -4.2833282900
O        1.5563963220   -1.1752056243   -4.9518398556
O        7.3256149659   -1.9341581737   -6.7187623776
O        7.7822896654   -3.7885043111   -5.0102203312
O        0.1929519920   -0.3492240338   -3.3351012974
S        5.8389284120    0.6256318387   -5.6007677949
S        6.9209381400   -2.7582991853   -5.5836922623
H        3.8572605707    2.1047956993   -5.5662857347
H       -1.7609379246    0.2099108357   -3.4181408437
H       -1.0633784990   -0.2236764071   -5.0066094058
H       -0.6482124177    1.3427382608   -4.2332847209
H        5.4460488829   -4.1200870849   -6.8261102770
H        4.9759501324   -4.0563997556   -5.0936660263
H        4.6028253124   -2.6730276807   -6.1811258509
H        2.4527291704    0.4843050472   -2.4132081155
H        1.9815764788    1.5804158608   -3.6980763185
H        6.4677284082   -2.1891922994   -3.4174830659
25   
torsion grid (120,)
C        4.3872448404    1.3361645040   -5.0594396910
C        3.8005189305    0.5392245822   -4.1146091482
C        5.6438555995   -0.6407426898   -4.4400763903
C        1.4193091766   -0.2691387939   -4.0141315089
C       -0.9254855067    0.1209163683   -4.0088812983
C        5.2784947353   -3.3782412789   -6.0161159344
C        2.4463905271    0.7330085466   -3.5064654204
N        4.5253535783   -0.5854321087   -3.7692620889
N        6.5922894634   -1.6591323468   -4.2569306024
O        1.5376219507   -0.9526564387   -5.0050331510
O        7.3736365860   -1.8891327867   -6.6742557959
O        7.7107015933   -3.7983790172   -4.9986013301
O        0.2673529267   -0.2145320609   -3.2717554356
S        5.9222780667    0.6855200937   -5.5463389342
S        6.9041741711   -2.7254391326   -5.5735841521
H        3.9908051552    2.2304802083   -5.5228848160
H       -1.7544993514    0.0131508369   -3.3093697539
H       -1.0617450825   -0.5512318777   -4.8600054846
H       -0.8667404650    1.1592697965   -4.3541427209
H        5.4265163541   -4.0067714900   -6.8958971092
H        4.9004971722   -3.9655225550   -5.1788304413
H        4.6122520964   -2.5458336567   -6.2454066313
H        2.4892182358    0.6700315900   -2.4144631492
H        2.0439440349    1.7236635497   -3.7454741974
H        6.4058217708   -2.1935141479   -3.4078846485
25   
torsion grid (135,)
C        4.5264106891    1.3378778211   -5.0156973471
C        3.8824190100    0.5598837452   -4.0928609597
C        5.6769546233   -0.7005186110   -4.3892623020
C        1.4756072024   -0.1617066812   -4.0294921686
C       -0.8957950403   -0.0605984055   -4.0067151696
C        5.2207449119   -3.3882990062   -6.0174264153
C        2.5259187920    0.8112565255   -3.5112932470
N        4.5470587341   -0.6002408736   -3.7432746459
N        6.5720392697   -1.7645917504   -4.1970010663
O        1.5626563720   -0.8050922619   -5.0524972035
O        7.4101278791   -2.0054893197   -6.5946522237
O        7.5965301918   -3.9506220466   -4.9369503593
O        0.3450272510   -0.1000570175   -3.2695419614
S        6.0412212866    0.6222682984   -5.4745221465
S        6.8651312595   -2.8288732903   -5.5194007608
H        4.1814794308    2.2533416745   -5.4789777815
H       -1.6826652807    0.0165388728   -3.2566515168
H       -1.0273987721   -0.9644540266   -4.6057399623
H       -0.9091426041    0.8188944365   -4.6578614887
H        5.3613078096   -4.0137348906   -6.9006303189
H        4.7871186211   -3.9638530433   -5.1991944875
H        4.6069991977   -2.5188147467   -6.2554489912
H        2.5480558729    0.7640903998   -2.4180389954
H        2.1639772011    1.8104922959   -3.7757726885
H        6.3396374130   -2.2997432291   -3.3598738607
25   
torsion grid (150,)
C        4.6124093838    1.3169106664   -5.0630111186
C        3.9138350228    0.5579873275   -4.1642407529
C        5.6496860740   -0.7845673723   -4.4483223735
C        1.4812768917   -0.0575996112   -4.1542822940
C       -0.8808518167   -0.2206347971   -4.0949798593
C        5.0673060055   -3.4183611614   -6.1157138113
C        2.5597663529    0.8664680287   -3.6045271594
N        4.5141897489   -0.6385173514   -3.8211555029
N        6.4862438532   -1.8959945112   -4.2592284433
O        1.5513197240   -0.6805907815   -5.1926988954
O        7.3377369764   -2.1543721585   -6.6509105876
O        7.3949581836   -4.1270641647   -5.0166137921
O        0.3592105444    0.0164720906   -3.3933468329
S        6.0986595676    0.5346449344   -5.5054762298
S        6.7346554054   -2.9586951819   -5.5924393341
H        4.3211114159    2.2549188343   -5.5179127568
H       -1.6692576447    0.0091876277   -3.3785430316
H       -0.9520547589   -1.2605449483   -4.4216673629
H       -0.9485083932    0.4376016922   -4.9650871350
H        5.1830199003   -4.0400991395   -7.0051135704
H        4.5925018377   -3.9783725070   -5.3096560974
H        4.5059902750   -2.5130346340   -6.3494765372
H        2.5597248495    0.8049734669   -2.5119472437
H        2.2519263953    1.8843633708   -3.8647863650
H        6.2151815001   -2.4287298144   -3.4322405853
25   
torsion grid (165,)
C        4.6769880645    1.3468244138   -5.0665993793
C        3.9395300425    0.6005159982   -4.1885975205
C        5.6364415728   -0.7938758640   -4.4604929149
C        1.4930148201    0.0604849817   -4.2338316096
C       -0.8272682002   -0.3786940503   -4.1019564735
C        4.9767474331   -3.3785387347   -6.1655082386
C        2.5863656677    0.9450179297   -3.6476182237
N        4.4958138057   -0.6184829033   -3.8502874862
N        6.4334338355   -1.9348095432   -4.2745697510
O        1.5708147341   -0.5672615074   -5.2699550428
O        7.3020624419   -2.2005442089   -6.6599888132
O        7.2611452746   -4.1920403951   -5.0483751670
O        0.3710036396    0.1350762879   -3.4799886842
S        6.1447810499    0.5224162365   -5.4937606380
S        6.6548042789   -2.9916837929   -5.6179016904
H        4.4233555123    2.2988530525   -5.5148466618
H       -1.6312937202   -0.1745872937   -3.3953277601
H       -0.7365114669   -1.4521208202   -4.2822597172
H       -1.0069464327    0.1325081327   -5.0507599147
H        5.0787222259   -3.9929384855   -7.0616609921
H        4.4714065440   -3.9299006736   -5.3721663725
H        4.4533858057   -2.4493124478   -6.3934013573
H        2.5640198634    0.8586933201   -2.5572604924
H        2.3219485368    1.9790304115   -3.8910254106
H        6.1339026163   -2.4673431453   -3.4572945438
25   
torsion grid (180,)
C        4.7266707930    1.4486719606   -5.0163423400
C        4.0056663880    0.6579397849   -4.1619725883
C        5.7268225850   -0.6936407572   -4.4870725813
C        1.5747651002    0.0797223301   -4.2928705617
C       -0.7080747271   -0.5313991784   -4.2183328188
C        4.8543618255   -3.2631184486   -6.0854780755
C        2.6375388714    0.9479374321   -3.6274429880
N        4.5864152731   -0.5589615851   -3.8649253957
N        6.5385732721   -1.8348074754   -4.3724455742
O        1.7471294051   -0.6517018281   -5.2468703538
O        7.1214407869   -2.1132089238   -6.8466191695
O        7.2434905258   -4.1046044180   -5.2395221302
O        0.3830563014    0.2434366727   -3.6749402411
S        6.2050376545    0.6647823426   -5.4753431702
S        6.5889655214   -2.8968350697   -5.7362522319
H        4.4550924657    2.4123906425   -5.4277550574
H       -1.5743250999   -0.2812678795   -3.6064694938
H       -0.4840418503   -1.5985035771   -4.1527746787
H       -0.8821385164   -0.2631367549   -5.2628650789
H        4.8458449882   -3.8612703423   -6.9982992232
H        4.4448694605   -3.8275892606   -5.2474356896
H        4.3097510819   -2.3294579265   -6.2303939267
H        2.5933062025    0.7711670496   -2.5483863652
H        2.3647674664    1.9953343349   -3.7880118535
H        6.3081816961   -2.3702767886   -3.5347194035
