
  -OEChem-12122420533D

 67 70  0     1  0  0  0  0  0999 V2000
   -5.3820    0.7591   -2.2571 C   0  0  0  0  0  0  0  0  0  0  0  0
   -3.9296    0.2671   -2.2158 C   0  0  0  0  0  0  0  0  0  0  0  0
   -3.7549   -0.8131   -1.1510 C   0  0  0  0  0  0  0  0  0  0  0  0
   -2.3346   -1.3335   -1.0788 N   0  3  2  0  0  0  0  0  0  0  0  0
   -2.0864   -1.5531   -2.0483 H   0  0  0  0  0  0  0  0  0  0  0  0
   -2.2177   -2.6412   -0.3312 C   0  0  0  0  0  0  0  0  0  0  0  0
   -0.9049   -3.3509   -0.7452 C   0  0  1  0  0  0  0  0  0  0  0  0
   -1.1063   -3.8829   -1.6789 H   0  0  0  0  0  0  0  0  0  0  0  0
    0.2349   -2.3264   -0.9585 C   0  0  0  0  0  0  0  0  0  0  0  0
   -0.0089   -1.0757   -0.1176 C   0  0  2  0  0  0  0  0  0  0  0  0
   -0.2227   -1.4031    0.9100 H   0  0  0  0  0  0  0  0  0  0  0  0
   -1.2739   -0.3107   -0.6153 C   0  0  2  0  0  0  0  0  0  0  0  0
   -1.0102    0.2397   -1.5218 H   0  0  0  0  0  0  0  0  0  0  0  0
   -1.7836    0.6981    0.4357 C   0  0  0  0  0  0  0  0  0  0  0  0
   -0.6278    1.6274    0.6922 C   0  0  0  0  0  0  0  0  0  0  0  0
    0.7011    1.1874    0.4383 C   0  0  0  0  0  0  0  0  0  0  0  0
    1.1233   -0.0705   -0.0089 C   0  0  0  0  0  0  0  0  0  0  0  0
    2.4784   -0.2433   -0.2413 C   0  0  0  0  0  0  0  0  0  0  0  0
    3.4024    0.8237   -0.0218 C   0  0  0  0  0  0  0  0  0  0  0  0
    2.9677    2.0735    0.4284 C   0  0  0  0  0  0  0  0  0  0  0  0
    1.5920    2.2553    0.6530 C   0  0  0  0  0  0  0  0  0  0  0  0
    0.8131    3.3268    1.0509 N   0  0  0  0  0  0  0  0  0  0  0  0
   -0.5413    2.9571    1.0610 C   0  0  0  0  0  0  0  0  0  0  0  0
   -1.8182    4.1127    1.4157 S   0  0  0  0  0  0  0  0  0  0  0  0
   -1.9403    3.9475    3.2450 C   0  0  0  0  0  0  0  0  0  0  0  0
    4.8703    0.5772   -0.2870 C   0  0  0  0  0  0  0  0  0  0  0  0
   -0.5216   -4.3578    0.2298 N   0  0  0  0  0  0  0  0  0  0  0  0
   -1.3992   -5.4346    0.4333 C   0  0  0  0  0  0  0  0  0  0  0  0
   -2.4271   -5.5289   -0.2528 O   0  0  0  0  0  0  0  0  0  0  0  0
   -1.0408   -6.3389    1.3865 N   0  0  0  0  0  0  0  0  0  0  0  0
   -1.9518   -7.4650    1.6453 C   0  0  0  0  0  0  0  0  0  0  0  0
   -1.6876   -8.6648    0.7335 C   0  0  0  0  0  0  0  0  0  0  0  0
    0.2625   -6.3409    2.0558 C   0  0  0  0  0  0  0  0  0  0  0  0
    0.2772   -5.5443    3.3662 C   0  0  0  0  0  0  0  0  0  0  0  0
   -5.5045    1.5157   -3.0356 H   0  0  0  0  0  0  0  0  0  0  0  0
   -6.0759   -0.0594   -2.4726 H   0  0  0  0  0  0  0  0  0  0  0  0
   -5.6736    1.2107   -1.3035 H   0  0  0  0  0  0  0  0  0  0  0  0
   -3.2618    1.1123   -2.0260 H   0  0  0  0  0  0  0  0  0  0  0  0
   -3.6527   -0.1452   -3.1951 H   0  0  0  0  0  0  0  0  0  0  0  0
   -4.0257   -0.4663   -0.1536 H   0  0  0  0  0  0  0  0  0  0  0  0
   -4.3793   -1.6784   -1.3850 H   0  0  0  0  0  0  0  0  0  0  0  0
   -2.2462   -2.4132    0.7352 H   0  0  0  0  0  0  0  0  0  0  0  0
   -3.0717   -3.2691   -0.5769 H   0  0  0  0  0  0  0  0  0  0  0  0
    1.1850   -2.7955   -0.6933 H   0  0  0  0  0  0  0  0  0  0  0  0
    0.3231   -2.0563   -2.0175 H   0  0  0  0  0  0  0  0  0  0  0  0
   -2.6473    1.2651    0.0835 H   0  0  0  0  0  0  0  0  0  0  0  0
   -2.0883    0.1660    1.3473 H   0  0  0  0  0  0  0  0  0  0  0  0
    2.8704   -1.1940   -0.5954 H   0  0  0  0  0  0  0  0  0  0  0  0
    3.6834    2.8758    0.5871 H   0  0  0  0  0  0  0  0  0  0  0  0
    1.1311    4.2711    1.2275 H   0  0  0  0  0  0  0  0  0  0  0  0
   -2.7243    4.6386    3.5636 H   0  0  0  0  0  0  0  0  0  0  0  0
   -0.9999    4.2255    3.7235 H   0  0  0  0  0  0  0  0  0  0  0  0
   -2.2182    2.9290    3.5220 H   0  0  0  0  0  0  0  0  0  0  0  0
    5.0389    0.2773   -1.3271 H   0  0  0  0  0  0  0  0  0  0  0  0
    5.4689    1.4710   -0.0959 H   0  0  0  0  0  0  0  0  0  0  0  0
    5.2569   -0.2265    0.3495 H   0  0  0  0  0  0  0  0  0  0  0  0
    0.0421   -4.0410    1.0087 H   0  0  0  0  0  0  0  0  0  0  0  0
   -2.9732   -7.1075    1.5090 H   0  0  0  0  0  0  0  0  0  0  0  0
   -1.8343   -7.7425    2.6977 H   0  0  0  0  0  0  0  0  0  0  0  0
   -2.3691   -9.4846    0.9827 H   0  0  0  0  0  0  0  0  0  0  0  0
   -1.8484   -8.3881   -0.3115 H   0  0  0  0  0  0  0  0  0  0  0  0
   -0.6629   -9.0354    0.8436 H   0  0  0  0  0  0  0  0  0  0  0  0
    1.0262   -5.9742    1.3635 H   0  0  0  0  0  0  0  0  0  0  0  0
    0.5217   -7.3831    2.2610 H   0  0  0  0  0  0  0  0  0  0  0  0
    1.2595   -5.6107    3.8447 H   0  0  0  0  0  0  0  0  0  0  0  0
    0.0534   -4.4835    3.2024 H   0  0  0  0  0  0  0  0  0  0  0  0
   -0.4699   -5.9320    4.0650 H   0  0  0  0  0  0  0  0  0  0  0  0
  1  2  1  0  0  0  0
  1 35  1  0  0  0  0
  1 36  1  0  0  0  0
  1 37  1  0  0  0  0
  2  3  1  0  0  0  0
  2 38  1  0  0  0  0
  2 39  1  0  0  0  0
  3  4  1  0  0  0  0
  3 40  1  0  0  0  0
  3 41  1  0  0  0  0
  4  5  1  0  0  0  0
  4  6  1  0  0  0  0
  4 12  1  0  0  0  0
  6  7  1  0  0  0  0
  6 42  1  0  0  0  0
  6 43  1  0  0  0  0
  7  8  1  0  0  0  0
  7  9  1  0  0  0  0
  7 27  1  0  0  0  0
  9 10  1  0  0  0  0
  9 44  1  0  0  0  0
  9 45  1  0  0  0  0
 10 11  1  0  0  0  0
 10 12  1  0  0  0  0
 10 17  1  0  0  0  0
 12 13  1  0  0  0  0
 12 14  1  0  0  0  0
 14 15  1  0  0  0  0
 14 46  1  0  0  0  0
 14 47  1  0  0  0  0
 15 16  1  0  0  0  0
 15 23  2  0  0  0  0
 16 17  2  0  0  0  0
 16 21  1  0  0  0  0
 17 18  1  0  0  0  0
 18 19  2  0  0  0  0
 18 48  1  0  0  0  0
 19 20  1  0  0  0  0
 19 26  1  0  0  0  0
 20 21  2  0  0  0  0
 20 49  1  0  0  0  0
 21 22  1  0  0  0  0
 22 23  1  0  0  0  0
 22 50  1  0  0  0  0
 23 24  1  0  0  0  0
 24 25  1  0  0  0  0
 25 51  1  0  0  0  0
 25 52  1  0  0  0  0
 25 53  1  0  0  0  0
 26 54  1  0  0  0  0
 26 55  1  0  0  0  0
 26 56  1  0  0  0  0
 27 28  1  0  0  0  0
 27 57  1  0  0  0  0
 28 29  2  0  0  0  0
 28 30  1  0  0  0  0
 30 31  1  0  0  0  0
 30 33  1  0  0  0  0
 31 32  1  0  0  0  0
 31 58  1  0  0  0  0
 31 59  1  0  0  0  0
 32 60  1  0  0  0  0
 32 61  1  0  0  0  0
 32 62  1  0  0  0  0
 33 34  1  0  0  0  0
 33 63  1  0  0  0  0
 33 64  1  0  0  0  0
 34 65  1  0  0  0  0
 34 66  1  0  0  0  0
 34 67  1  0  0  0  0
M  CHG  1   4   1
M  END
$$$$
