
  -OEChem-12122420533D

 67 70  0     1  0  0  0  0  0999 V2000
   -5.4702    1.0013   -1.9851 C   0  0  0  0  0  0  0  0  0  0  0  0
   -4.0577    0.4038   -2.0031 C   0  0  0  0  0  0  0  0  0  0  0  0
   -3.8922   -0.6271   -0.8890 C   0  0  0  0  0  0  0  0  0  0  0  0
   -2.5072   -1.2368   -0.8632 N   0  3  2  0  0  0  0  0  0  0  0  0
   -2.3227   -1.5145   -1.8319 H   0  0  0  0  0  0  0  0  0  0  0  0
   -2.4382   -2.5081   -0.0502 C   0  0  0  0  0  0  0  0  0  0  0  0
   -1.2081   -3.3199   -0.5024 C   0  0  1  0  0  0  0  0  0  0  0  0
   -1.4634   -3.7821   -1.4626 H   0  0  0  0  0  0  0  0  0  0  0  0
    0.0262   -2.3955   -0.7260 C   0  0  0  0  0  0  0  0  0  0  0  0
   -0.1298   -1.0622    0.0005 C   0  0  2  0  0  0  0  0  0  0  0  0
   -0.3187   -1.3079    1.0499 H   0  0  0  0  0  0  0  0  0  0  0  0
   -1.3591   -0.2561   -0.5122 C   0  0  2  0  0  0  0  0  0  0  0  0
   -1.1108    0.2133   -1.4677 H   0  0  0  0  0  0  0  0  0  0  0  0
   -1.7590    0.8499    0.4883 C   0  0  0  0  0  0  0  0  0  0  0  0
   -0.5417    1.7251    0.6184 C   0  0  0  0  0  0  0  0  0  0  0  0
    0.7451    1.1850    0.3441 C   0  0  0  0  0  0  0  0  0  0  0  0
    1.0661   -0.1288   -0.0186 C   0  0  0  0  0  0  0  0  0  0  0  0
    2.3975   -0.4055   -0.2844 C   0  0  0  0  0  0  0  0  0  0  0  0
    3.3948    0.6121   -0.1805 C   0  0  0  0  0  0  0  0  0  0  0  0
    3.0595    1.9185    0.1858 C   0  0  0  0  0  0  0  0  0  0  0  0
    1.7078    2.2058    0.4453 C   0  0  0  0  0  0  0  0  0  0  0  0
    1.0138    3.3506    0.7942 N   0  0  0  0  0  0  0  0  0  0  0  0
   -0.3592    3.0686    0.8863 C   0  0  0  0  0  0  0  0  0  0  0  0
   -1.5452    4.3222    1.2221 S   0  0  0  0  0  0  0  0  0  0  0  0
   -1.6003    4.2640    3.0613 C   0  0  0  0  0  0  0  0  0  0  0  0
    4.8332    0.2484   -0.4717 C   0  0  0  0  0  0  0  0  0  0  0  0
   -1.0163   -4.4453    0.4057 N   0  0  0  0  0  0  0  0  0  0  0  0
   -0.6078   -4.2436    1.7275 C   0  0  0  0  0  0  0  0  0  0  0  0
   -0.6912   -3.1141    2.2382 O   0  0  0  0  0  0  0  0  0  0  0  0
   -0.1594   -5.3322    2.4123 N   0  0  0  0  0  0  0  0  0  0  0  0
    0.1906   -5.1531    3.8317 C   0  0  0  0  0  0  0  0  0  0  0  0
    1.6647   -4.7972    4.0314 C   0  0  0  0  0  0  0  0  0  0  0  0
   -0.0119   -6.6734    1.8405 C   0  0  0  0  0  0  0  0  0  0  0  0
   -1.3097   -7.4887    1.8486 C   0  0  0  0  0  0  0  0  0  0  0  0
   -5.5885    1.7210   -2.7985 H   0  0  0  0  0  0  0  0  0  0  0  0
   -6.2348    0.2275   -2.1081 H   0  0  0  0  0  0  0  0  0  0  0  0
   -5.6649    1.5259   -1.0443 H   0  0  0  0  0  0  0  0  0  0  0  0
   -3.3200    1.2047   -1.9037 H   0  0  0  0  0  0  0  0  0  0  0  0
   -3.8743   -0.0804   -2.9715 H   0  0  0  0  0  0  0  0  0  0  0  0
   -4.0815   -0.2101    0.1000 H   0  0  0  0  0  0  0  0  0  0  0  0
   -4.5870   -1.4568   -1.0403 H   0  0  0  0  0  0  0  0  0  0  0  0
   -2.3704   -2.2399    1.0016 H   0  0  0  0  0  0  0  0  0  0  0  0
   -3.3551   -3.0728   -0.2242 H   0  0  0  0  0  0  0  0  0  0  0  0
    0.9149   -2.9093   -0.3544 H   0  0  0  0  0  0  0  0  0  0  0  0
    0.1889   -2.2325   -1.7992 H   0  0  0  0  0  0  0  0  0  0  0  0
   -2.6082    1.4434    0.1444 H   0  0  0  0  0  0  0  0  0  0  0  0
   -2.0345    0.3959    1.4494 H   0  0  0  0  0  0  0  0  0  0  0  0
    2.7153   -1.4053   -0.5712 H   0  0  0  0  0  0  0  0  0  0  0  0
    3.8307    2.6809    0.2584 H   0  0  0  0  0  0  0  0  0  0  0  0
    1.3966    4.2818    0.8939 H   0  0  0  0  0  0  0  0  0  0  0  0
   -2.3295    5.0164    3.3715 H   0  0  0  0  0  0  0  0  0  0  0  0
   -0.6259    4.5103    3.4861 H   0  0  0  0  0  0  0  0  0  0  0  0
   -1.9230    3.2797    3.4051 H   0  0  0  0  0  0  0  0  0  0  0  0
    4.9434   -0.1491   -1.4868 H   0  0  0  0  0  0  0  0  0  0  0  0
    5.4937    1.1140   -0.3786 H   0  0  0  0  0  0  0  0  0  0  0  0
    5.1926   -0.5221    0.2196 H   0  0  0  0  0  0  0  0  0  0  0  0
   -0.7881   -5.3226   -0.0390 H   0  0  0  0  0  0  0  0  0  0  0  0
   -0.0584   -6.0849    4.3491 H   0  0  0  0  0  0  0  0  0  0  0  0
   -0.4462   -4.3677    4.2389 H   0  0  0  0  0  0  0  0  0  0  0  0
    1.8895   -4.7016    5.0985 H   0  0  0  0  0  0  0  0  0  0  0  0
    2.3233   -5.5679    3.6167 H   0  0  0  0  0  0  0  0  0  0  0  0
    1.8931   -3.8447    3.5453 H   0  0  0  0  0  0  0  0  0  0  0  0
    0.7525   -7.1884    2.4280 H   0  0  0  0  0  0  0  0  0  0  0  0
    0.4067   -6.6086    0.8289 H   0  0  0  0  0  0  0  0  0  0  0  0
   -1.1352   -8.4885    1.4386 H   0  0  0  0  0  0  0  0  0  0  0  0
   -1.6861   -7.6004    2.8696 H   0  0  0  0  0  0  0  0  0  0  0  0
   -2.0914   -7.0041    1.2555 H   0  0  0  0  0  0  0  0  0  0  0  0
  1  2  1  0  0  0  0
  1 35  1  0  0  0  0
  1 36  1  0  0  0  0
  1 37  1  0  0  0  0
  2  3  1  0  0  0  0
  2 38  1  0  0  0  0
  2 39  1  0  0  0  0
  3  4  1  0  0  0  0
  3 40  1  0  0  0  0
  3 41  1  0  0  0  0
  4  5  1  0  0  0  0
  4  6  1  0  0  0  0
  4 12  1  0  0  0  0
  6  7  1  0  0  0  0
  6 42  1  0  0  0  0
  6 43  1  0  0  0  0
  7  8  1  0  0  0  0
  7  9  1  0  0  0  0
  7 27  1  0  0  0  0
  9 10  1  0  0  0  0
  9 44  1  0  0  0  0
  9 45  1  0  0  0  0
 10 11  1  0  0  0  0
 10 12  1  0  0  0  0
 10 17  1  0  0  0  0
 12 13  1  0  0  0  0
 12 14  1  0  0  0  0
 14 15  1  0  0  0  0
 14 46  1  0  0  0  0
 14 47  1  0  0  0  0
 15 16  1  0  0  0  0
 15 23  2  0  0  0  0
 16 17  2  0  0  0  0
 16 21  1  0  0  0  0
 17 18  1  0  0  0  0
 18 19  2  0  0  0  0
 18 48  1  0  0  0  0
 19 20  1  0  0  0  0
 19 26  1  0  0  0  0
 20 21  2  0  0  0  0
 20 49  1  0  0  0  0
 21 22  1  0  0  0  0
 22 23  1  0  0  0  0
 22 50  1  0  0  0  0
 23 24  1  0  0  0  0
 24 25  1  0  0  0  0
 25 51  1  0  0  0  0
 25 52  1  0  0  0  0
 25 53  1  0  0  0  0
 26 54  1  0  0  0  0
 26 55  1  0  0  0  0
 26 56  1  0  0  0  0
 27 28  1  0  0  0  0
 27 57  1  0  0  0  0
 28 29  2  0  0  0  0
 28 30  1  0  0  0  0
 30 31  1  0  0  0  0
 30 33  1  0  0  0  0
 31 32  1  0  0  0  0
 31 58  1  0  0  0  0
 31 59  1  0  0  0  0
 32 60  1  0  0  0  0
 32 61  1  0  0  0  0
 32 62  1  0  0  0  0
 33 34  1  0  0  0  0
 33 63  1  0  0  0  0
 33 64  1  0  0  0  0
 34 65  1  0  0  0  0
 34 66  1  0  0  0  0
 34 67  1  0  0  0  0
M  CHG  1   4   1
M  END
$$$$
