67
1 1 C24H37N4OS
C                    -6.220405815235    -0.710706399148    -1.928466019973
C                    -4.864924581477    -1.426316974555    -1.856289158912
C                    -3.887565468367    -0.639356536232    -0.985325669638
N                    -2.503928218092    -1.254080450111    -0.961765663032
H                    -2.305847181397    -1.494675525701    -1.937222569283
C                    -2.434036418312    -2.556800604548    -0.198671143370
C                    -1.170466757168    -3.341858121621    -0.621567058938
H                    -1.435769984575    -3.965228119067    -1.485631929505
C                    -0.025428377876    -2.373920045643    -0.997941212007
C                    -0.123478734223    -1.111986415222    -0.146095874043
H                    -0.276134167259    -1.442038300307     0.890140262834
C                    -1.379053866532    -0.284809170360    -0.551674814649
H                    -1.156046360671     0.268162086121    -1.469425644590
C                    -1.773414821784     0.732675466221     0.539749949085
C                    -0.557777185699     1.602547045946     0.725845360088
C                     0.728319628680     1.105932019379     0.370512742861
C                     1.059979736225    -0.164139446358    -0.118374687732
C                     2.385413118479    -0.395111079823    -0.448614811733
C                     3.371357142272     0.625616132451    -0.284695550721
C                     3.028236030030     1.886691368643     0.210407849393
C                     1.681730250319     2.127679273644     0.535301902415
N                     0.985221151848     3.226320231204     1.004310822840
C                    -0.380988578345     2.919628545995     1.107418478163
S                    -1.569626936962     4.126829657981     1.578423724907
C                    -1.566058610362     3.921382728518     3.407689523496
C                     4.803700238732     0.316330865064    -0.657157057454
N                    -0.747450422033    -4.180378851505     0.500895482815
C                    -1.625259744586    -5.221655560067     0.869853592992
O                    -2.782752256614    -5.238811479945     0.428738746364
N                    -1.135202790023    -6.147876331648     1.737482466780
C                    -2.014982361043    -7.259783216828     2.130996791413
C                    -2.867662301429    -6.934189406322     3.358781208818
C                     0.179633628083    -6.052094886093     2.377644564189
C                     1.295274371786    -6.751015005896     1.591223399778
H                    -6.913245424299    -1.275959625851    -2.556231215161
H                    -6.671776486630    -0.615684788566    -0.935822776738
H                    -6.122119086012     0.292324349311    -2.355708835280
H                    -4.449952253247    -1.526525627782    -2.868269823325
H                    -5.008407912923    -2.437666103009    -1.466046927477
H                    -3.770845099722     0.372671415457    -1.378307541453
H                    -4.225187942547    -0.570674282094     0.050272290106
H                    -2.410041592083    -2.309585146336     0.862765370090
H                    -3.328613996103    -3.135862154927    -0.398789406490
H                     0.937602457907    -2.869042686641    -0.846620279228
H                    -0.059100505886    -2.126473744457    -2.066426577584
H                    -2.631306781979     1.342258576959     0.248370276347
H                    -2.041930609953     0.204458601061     1.464454442746
H                     2.707199731792    -1.358423930017    -0.838196841681
H                     3.790029652188     2.652885533233     0.327846983567
H                     1.359399611083     4.151433413717     1.172108952806
H                    -2.288939281586     4.641445589305     3.798544727354
H                    -0.580397437081     4.140770588174     3.821224283625
H                    -1.874101449035     2.910924422272     3.682154755793
H                     4.884061597955     0.023929255880    -1.709978761720
H                     5.455210451463     1.179193836599    -0.499836853222
H                     5.197159878192    -0.512908593972    -0.058646207250
H                     0.232229757576    -4.435989388658     0.459181517528
H                    -1.376127712353    -8.127919740898     2.321031471657
H                    -2.654046077066    -7.499429895730     1.280474518186
H                    -3.481488884219    -7.798569984013     3.631584856423
H                    -2.246143217696    -6.677465369191     4.223308733728
H                    -3.533362078265    -6.093693792380     3.145338353493
H                     0.091720476139    -6.506931308377     3.368206437035
H                     0.421342383573    -4.999593852634     2.553477440458
H                     2.245179638913    -6.680647735100     2.130514980854
H                     1.063530536476    -7.809933249679     1.444917617011
H                     1.435996096706    -6.307386980276     0.598799548123
