
  -OEChem-12122420523D

 22 22  0     0  0  0  0  0  0999 V2000
   -1.3171   -1.0397   -0.7429 C   0  0  0  0  0  0  0  0  0  0  0  0
   -1.7650   -2.3848   -0.9195 C   0  0  0  0  0  0  0  0  0  0  0  0
   -0.0027   -0.7541   -0.5003 C   0  0  0  0  0  0  0  0  0  0  0  0
   -0.8394   -3.3936   -0.8497 C   0  0  0  0  0  0  0  0  0  0  0  0
    1.0063   -1.8041   -0.4406 C   0  0  0  0  0  0  0  0  0  0  0  0
   -1.0769   -4.8563   -1.1258 C   0  0  0  0  0  0  0  0  0  0  0  0
   -2.5415   -6.7717   -1.2906 C   0  0  0  0  0  0  0  0  0  0  0  0
   -3.2292   -4.9063    0.1714 C   0  0  0  0  0  0  0  0  0  0  0  0
    0.4754   -3.0922   -0.6260 N   0  0  0  0  0  0  0  0  0  0  0  0
   -2.2979   -5.4015   -0.8410 N   0  0  0  0  0  0  0  0  0  0  0  0
    2.2139   -1.6433   -0.2582 O   0  0  0  0  0  0  0  0  0  0  0  0
   -0.1613   -5.5055   -1.6438 O   0  0  0  0  0  0  0  0  0  0  0  0
   -2.0419   -0.2314   -0.8077 H   0  0  0  0  0  0  0  0  0  0  0  0
   -2.8018   -2.6008   -1.1425 H   0  0  0  0  0  0  0  0  0  0  0  0
    0.3528    0.2621   -0.3667 H   0  0  0  0  0  0  0  0  0  0  0  0
   -2.2497   -7.4996   -0.5227 H   0  0  0  0  0  0  0  0  0  0  0  0
   -1.9629   -6.9685   -2.1917 H   0  0  0  0  0  0  0  0  0  0  0  0
   -3.6084   -6.8887   -1.5028 H   0  0  0  0  0  0  0  0  0  0  0  0
   -4.1782   -4.5922   -0.2795 H   0  0  0  0  0  0  0  0  0  0  0  0
   -2.8032   -4.0691    0.7206 H   0  0  0  0  0  0  0  0  0  0  0  0
   -3.4394   -5.7106    0.8857 H   0  0  0  0  0  0  0  0  0  0  0  0
    1.1462   -3.8557   -0.6959 H   0  0  0  0  0  0  0  0  0  0  0  0
  1  2  1  0  0  0  0
  1  3  2  0  0  0  0
  1 13  1  0  0  0  0
  2  4  2  0  0  0  0
  2 14  1  0  0  0  0
  3  5  1  0  0  0  0
  3 15  1  0  0  0  0
  4  6  1  0  0  0  0
  4  9  1  0  0  0  0
  5  9  1  0  0  0  0
  5 11  2  0  0  0  0
  6 10  1  0  0  0  0
  6 12  2  0  0  0  0
  7 10  1  0  0  0  0
  7 16  1  0  0  0  0
  7 17  1  0  0  0  0
  7 18  1  0  0  0  0
  8 10  1  0  0  0  0
  8 19  1  0  0  0  0
  8 20  1  0  0  0  0
  8 21  1  0  0  0  0
  9 22  1  0  0  0  0
M  END
$$$$
