22
0 1 C8H10N2O2
C                    -1.317104148834    -1.039720467178    -0.742896825676
C                    -1.765017578509    -2.384805713001    -0.919538231805
C                    -0.002655321283    -0.754093744486    -0.500251273063
C                    -0.839404170070    -3.393615240646    -0.849700630355
C                     1.006327294935    -1.804050118201    -0.440557961698
C                    -1.076884127591    -4.856300755104    -1.125836565066
C                    -2.541502096679    -6.771682471660    -1.290579172900
C                    -3.229185180748    -4.906257978390     0.171405234672
N                     0.475354130897    -3.092182804312    -0.626007406080
N                    -2.297894753901    -5.401470912896    -0.841032231385
O                     2.213907424805    -1.643278874206    -0.258161298311
O                    -0.161345401269    -5.505529727213    -1.643827027711
H                    -2.041913242357    -0.231376681578    -0.807662305896
H                    -2.801753539136    -2.600784957031    -1.142479717518
H                     0.352751476005     0.262115273387    -0.366740185609
H                    -2.249741977277    -7.499588696519    -0.522676501475
H                    -1.962915223549    -6.968475887907    -2.191723353032
H                    -3.608366391372    -6.888742275734    -1.502796369136
H                    -4.178244245889    -4.592166236733    -0.279486690100
H                    -2.803227048955    -4.069138372174     0.720554260036
H                    -3.439443389409    -5.710647550785     0.885728274299
H                     1.146225715367    -3.855710217392    -0.695880774618
