
  -OEChem-12122420523D

 19 19  0     0  0  0  0  0  0999 V2000
   -6.7239    4.9100   -2.1934 C   0  0  0  0  0  0  0  0  0  0  0  0
   -6.9285    5.9893   -1.2784 C   0  0  0  0  0  0  0  0  0  0  0  0
   -5.4046    4.5492   -2.3016 C   0  0  0  0  0  0  0  0  0  0  0  0
   -5.7660    6.4265   -0.6954 C   0  0  0  0  0  0  0  0  0  0  0  0
   -5.7518    7.2892    1.6016 C   0  0  0  0  0  0  0  0  0  0  0  0
   -6.1395    5.8936    2.0584 C   0  0  0  0  0  0  0  0  0  0  0  0
   -5.1903    8.7814   -0.2885 C   0  0  0  0  0  0  0  0  0  0  0  0
   -5.6013    7.4722    0.2309 N   0  0  0  0  0  0  0  0  0  0  0  0
   -5.5899    8.2132    2.3932 O   0  0  0  0  0  0  0  0  0  0  0  0
   -4.3848    5.5120   -1.2854 S   0  0  0  0  0  0  0  0  0  0  0  0
   -7.5198    4.4265   -2.7501 H   0  0  0  0  0  0  0  0  0  0  0  0
   -7.8934    6.4311   -1.0509 H   0  0  0  0  0  0  0  0  0  0  0  0
   -4.9742    3.7741   -2.9233 H   0  0  0  0  0  0  0  0  0  0  0  0
   -5.4665    5.1319    1.6561 H   0  0  0  0  0  0  0  0  0  0  0  0
   -7.1501    5.6425    1.7241 H   0  0  0  0  0  0  0  0  0  0  0  0
   -6.1065    5.8794    3.1477 H   0  0  0  0  0  0  0  0  0  0  0  0
   -5.9060    9.1239   -1.0418 H   0  0  0  0  0  0  0  0  0  0  0  0
   -4.1973    8.7184   -0.7469 H   0  0  0  0  0  0  0  0  0  0  0  0
   -5.1619    9.4829    0.5444 H   0  0  0  0  0  0  0  0  0  0  0  0
  1  2  1  0  0  0  0
  1  3  2  0  0  0  0
  1 11  1  0  0  0  0
  2  4  2  0  0  0  0
  2 12  1  0  0  0  0
  3 10  1  0  0  0  0
  3 13  1  0  0  0  0
  4  8  1  0  0  0  0
  4 10  1  0  0  0  0
  5  6  1  0  0  0  0
  5  8  1  0  0  0  0
  5  9  2  0  0  0  0
  6 14  1  0  0  0  0
  6 15  1  0  0  0  0
  6 16  1  0  0  0  0
  7  8  1  0  0  0  0
  7 17  1  0  0  0  0
  7 18  1  0  0  0  0
  7 19  1  0  0  0  0
M  END
$$$$
