19
0 1 C7H9NOS
C                    -4.310473676722     0.509601532744    -4.619732035448
C                    -3.079541967273     0.283295914042    -3.928660021145
C                    -5.262601154752     1.100023835198    -3.827725749544
C                    -3.115537844709     0.693219431299    -2.619815391926
C                    -1.841243984049    -0.495251754946    -0.892397880985
C                    -2.740978790641    -1.692258606641    -1.145622500972
C                    -1.282428277491     1.846751125989    -1.457152770925
N                    -2.084192617618     0.635700313297    -1.665020606749
O                    -0.939418906308    -0.521470935245    -0.060139095538
S                    -4.681835563794     1.385902933085    -2.221274439429
H                    -4.479783046842     0.250398898351    -5.659592184243
H                    -2.196689072600    -0.166628320241    -4.371677640853
H                    -6.271345170258     1.385741454660    -4.098461997039
H                    -2.560249337098    -2.109685422820    -2.140269711845
H                    -3.799608098375    -1.424614775513    -1.094132224848
H                    -2.511875396150    -2.445526305501    -0.392020944210
H                    -1.913095221205     2.665836870292    -1.095125882063
H                    -0.814538095898     2.150774223442    -2.398464422405
H                    -0.515700405933     1.622597252952    -0.716569354552
