19   
torsion grid (-165,)
C        2.8515290866   -4.1097220273   -1.0169551211
C        4.4990609482   -2.8022021609   -0.2565840434
C        4.1769812817   -4.1225872461   -0.4969508956
C        1.3710219625    1.2062069685    0.7728266710
C        1.7754892819   -0.2539105396    0.5791061444
N        2.3769198941   -2.8678731057   -1.1040990982
N        3.3814209936   -2.0896606913   -0.6377433874
O        4.3999062836    0.1105111726    0.0725091526
O        2.7593916293    0.1080617489   -1.8792898155
O        4.9973239227   -5.1886895631   -0.2410579576
S        3.1735701760   -0.3647800234   -0.5658980188
H        2.2350393874   -4.9466347362   -1.3263770593
H        5.3855130844   -2.3217221442    0.1290474513
H        2.1906664284    1.7933281632    1.1945812256
H        1.0622525105    1.6571224842   -0.1730346825
H        0.5266447275    1.2492752464    1.4667788173
H        0.9853414448   -0.8585038217    0.1291693314
H        2.1162570109   -0.7252100302    1.5038737323
H        4.6546672004   -5.9682160568   -0.7041988427
19   
torsion grid (-150,)
C        2.8289475022   -4.1169938112   -0.9938807352
C        4.4854992316   -2.8146365077   -0.2439278338
C        4.1553471520   -4.1345491911   -0.4752769083
C        1.3700225373    1.2102638473    0.7692278003
C        1.7703870981   -0.2518922948    0.5825588034
N        2.3623348018   -2.8733426920   -1.0894364761
N        3.3715845524   -2.0979907291   -0.6249271705
O        4.3982592037    0.0991427157    0.0828657380
O        2.7638371412    0.0992878690   -1.8739191377
O        4.9620764765   -5.2087173224   -0.2010190551
S        3.1714286858   -0.3718527467   -0.5578282198
H        2.2073692138   -4.9523434894   -1.2965129222
H        5.3743174567   -2.3379032826    0.1411599102
H        2.1902472142    1.7965135666    1.1910741460
H        1.0653920712    1.6583503605   -0.1793092743
H        0.5238007546    1.2586656124    1.4605674463
H        0.9796892872   -0.8558542050    0.1327378961
H        2.1070199634   -0.7205804758    1.5101613206
H        4.7681808504   -5.9184965188   -0.8323635047
19   
torsion grid (-135,)
C        2.8084644599   -4.1215458306   -0.9836027961
C        4.4712921888   -2.8260682066   -0.2349331865
C        4.1327697851   -4.1452690620   -0.4589928978
C        1.3827293415    1.2182302345    0.7608104536
C        1.7742102341   -0.2465682640    0.5759645304
N        2.3518210401   -2.8758796628   -1.0908042404
N        3.3664498824   -2.1040769073   -0.6272737274
O        4.4038942054    0.0897750567    0.0752964878
O        2.7695911549    0.0925714990   -1.8817295605
O        4.9220529572   -5.2305188256   -0.1660569253
S        3.1745780258   -0.3764622771   -0.5641471196
H        2.1824187200   -4.9551616120   -1.2808321420
H        5.3604471558   -2.3538593726    0.1553191895
H        2.2063841557    1.7999647281    1.1822029451
H        1.0809581682    1.6670693012   -0.1882893269
H        0.5366489232    1.2724765556    1.4518763985
H        0.9799755297   -0.8462506969    0.1266166916
H        2.1077429148   -0.7162383969    1.5041925457
H        4.9080864783   -5.8440182025   -0.9170522318
19   
torsion grid (-120,)
C        2.7780574929   -4.1316432674   -0.9698363885
C        4.4512352559   -2.8448780646   -0.2269277936
C        4.1044410293   -4.1623530455   -0.4511068503
C        1.3848646139    1.2227720197    0.7595721736
C        1.7691883159   -0.2447317915    0.5812833647
N        2.3295624814   -2.8832676540   -1.0743618790
N        3.3514338917   -2.1156009741   -0.6145235571
O        4.4028173033    0.0725692566    0.0863467504
O        2.7736564530    0.0833366952   -1.8745992204
O        4.8799077971   -5.2607906725   -0.1597157737
S        3.1715071946   -0.3860633350   -0.5549360811
H        2.1468187253   -4.9627164475   -1.2624581779
H        5.3435105799   -2.3784175185    0.1635423387
H        2.2104288476    1.8019579375    1.1807459880
H        1.0875618288    1.6694882760   -0.1919259226
H        0.5374747784    1.2838710427    1.4484399640
H        0.9730229085   -0.8421001643    0.1322785068
H        2.0981936950   -0.7126348958    1.5120037146
H        5.0550286391   -5.7519066802   -0.9778248477
19   
torsion grid (-105,)
C        2.7476152826   -4.1397340483   -0.9648848456
C        4.4309413099   -2.8649499149   -0.2255548222
C        4.0766949240   -4.1802366634   -0.4547762974
C        1.3898511143    1.2267891838    0.7591186264
C        1.7652991757   -0.2437164381    0.5866910319
N        2.3027670218   -2.8896551722   -1.0584931192
N        3.3337855247   -2.1289637200   -0.6040561831
O        4.4024757882    0.0518233350    0.0938652579
O        2.7757154339    0.0731716772   -1.8685680501
O        4.8352018798   -5.2946455148   -0.1712957109
S        3.1677208046   -0.3975536773   -0.5475765173
H        2.1115459579   -4.9680976823   -1.2538607998
H        5.3263186019   -2.4035797944    0.1643423488
H        2.2184479779    1.8025789429    1.1790059051
H        1.0961357749    1.6717481855   -0.1943045213
H        0.5422037864    1.2954995055    1.4469290890
H        0.9660474797   -0.8379392915    0.1390065452
H        2.0906412673   -0.7102973561    1.5193411006
H        5.2017475559   -5.6485222228   -0.9970510200
19   
torsion grid (-90,)
C        2.7179354051   -4.1488909889   -0.9617670023
C        4.4114693507   -2.8856847556   -0.2273267033
C        4.0519693146   -4.1982763251   -0.4674635697
C        1.3932909778    1.2302770754    0.7594339737
C        1.7597996856   -0.2433046959    0.5941745025
N        2.2744634230   -2.8973092178   -1.0387099244
N        3.3134781799   -2.1435789913   -0.5902032286
O        4.4002452639    0.0297094586    0.1025750597
O        2.7752548540    0.0612575063   -1.8606979732
O        4.7961516761   -5.3282948988   -0.2057727228
S        3.1618352004   -0.4106069128   -0.5384129990
H        2.0777649623   -4.9746580404   -1.2483706021
H        5.3104365385   -2.4282372034    0.1593027085
H        2.2250425473    1.8030475716    1.1772297536
H        1.1029187737    1.6725197365   -0.1962641333
H        0.5456314418    1.3073140218    1.4463268377
H        0.9572999317   -0.8347669641    0.1486560070
H        2.0817964618   -0.7076605454    1.5290679863
H        5.3401110926   -5.5388397523   -0.9810887757
19   
torsion grid (-75,)
C        2.6913665233   -4.1690412687   -0.9514612973
C        4.3982755658   -2.9154214350   -0.2306056070
C        4.0367426267   -4.2238967097   -0.4913153382
C        1.3904158840    1.2317219621    0.7519159213
C        1.7485813880   -0.2460286355    0.6069560478
N        2.2420349091   -2.9177578847   -0.9898738000
N        3.2886112908   -2.1697352895   -0.5508440278
O        4.3948520062   -0.0019671687    0.1267890129
O        2.7803552650    0.0320664774   -1.8441039337
O        4.7741971244   -5.3671477617   -0.2758873909
S        3.1548180513   -0.4351888823   -0.5163821822
H        2.0489560257   -4.9923917213   -1.2394323122
H        5.3040555874   -2.4601306610    0.1426995407
H        2.2235103623    1.8046860842    1.1668094394
H        1.1076761615    1.6637281556   -0.2107131054
H        0.5398260291    1.3224959572    1.4334585286
H        0.9447138169   -0.8382028958    0.1648703566
H        2.0633552763   -0.7008440232    1.5489175558
H        5.4659296368   -5.4353421357   -0.9525370934
19   
torsion grid (-60,)
C        2.6714743603   -4.1771869940   -0.9627830701
C        4.3852951716   -2.9312792779   -0.2444348226
C        4.0200010684   -4.2370008890   -0.5139313879
C        1.4002025243    1.2300781789    0.7567345349
C        1.7495760719   -0.2495779753    0.6099292723
N        2.2240281516   -2.9247851252   -0.9888084711
N        3.2737555826   -2.1808807087   -0.5538706622
O        4.3946615395   -0.0195296977    0.1161717760
O        2.7700994931    0.0234958598   -1.8460817282
O        4.7409205669   -5.3918762974   -0.3182277221
S        3.1489532808   -0.4466175066   -0.5205521357
H        2.0269415605   -4.9984354171   -1.2514591343
H        5.2936741677   -2.4770622891    0.1240118062
H        2.2385712537    1.7984803436    1.1672726652
H        1.1149026849    1.6636308400   -0.2044438953
H        0.5536452115    1.3255720643    1.4426461456
H        0.9401688408   -0.8372763118    0.1719677660
H        2.0665002770   -0.7062229826    1.5502721330
H        5.5607308134   -5.3509089641   -0.8346542282
19   
torsion grid (-45,)
C        2.6585729088   -4.1748430882   -0.9770030037
C        4.3794293057   -2.9348881289   -0.2646777136
C        4.0095817226   -4.2384892793   -0.5366920141
C        1.4105712967    1.2315225046    0.7647309899
C        1.7546494949   -0.2487218142    0.6116948244
N        2.2137519800   -2.9213195331   -0.9965750621
N        3.2658741706   -2.1806233117   -0.5663366115
O        4.3971902974   -0.0256463830    0.1017107334
O        2.7599625639    0.0287116844   -1.8497013268
O        4.7169074523   -5.4015091748   -0.3599356442
S        3.1460848493   -0.4473534598   -0.5283822862
H        2.0115444140   -4.9940934440   -1.2652766128
H        5.2902029557   -2.4814655515    0.0989888522
H        2.2533041400    1.7963561999    1.1712583221
H        1.1203609996    1.6684603758   -0.1934371257
H        0.5687769968    1.3277700336    1.4563960164
H        0.9405725395   -0.8328153691    0.1775738747
H        2.0762046991   -0.7088075740    1.5487833035
H        5.6230925855   -5.2790090850   -0.6822921815
19   
torsion grid (-30,)
C        2.6478585308   -4.1791856540   -0.9910212414
C        4.3753855134   -2.9425727398   -0.2884453799
C        4.0021001570   -4.2446618827   -0.5602842318
C        1.4174026146    1.2244059919    0.7736114884
C        1.7573908127   -0.2560516012    0.6138378969
N        2.2036378424   -2.9255097699   -1.0042215299
N        3.2575931241   -2.1866159790   -0.5788953043
O        4.3964672509   -0.0361135612    0.0857347781
O        2.7450897262    0.0263434787   -1.8535931341
O        4.7047517120   -5.4113644124   -0.4111920028
S        3.1402773728   -0.4545646000   -0.5367020050
H        1.9994260865   -4.9971537711   -1.2794515028
H        5.2894215197   -2.4886579059    0.0665133420
H        2.2642346286    1.7863391293    1.1756287967
H        1.1212861707    1.6646753776   -0.1812195881
H        0.5807870229    1.3204727487    1.4715740042
H        0.9389417370   -0.8371527490    0.1839117243
H        2.0844642082   -0.7195087120    1.5473512653
H        5.6510199499   -5.2341352438   -0.5262829238
19   
torsion grid (-15,)
C        2.6409967376   -4.1818114207   -1.0061428983
C        4.3742252977   -2.9452649606   -0.3170924306
C        3.9971990499   -4.2474516627   -0.5807302316
C        1.4224030059    1.2134067260    0.7868263981
C        1.7611725618   -0.2660075042    0.6153168731
N        2.1983374182   -2.9277439984   -1.0206957743
N        3.2533711525   -2.1886186290   -0.6007311458
O        4.3950522098   -0.0411702357    0.0650249888
O        2.7260429979    0.0294275129   -1.8591383133
O        4.6992573497   -5.4149565837   -0.4545729716
S        3.1339043276   -0.4580515021   -0.5485995597
H        1.9912591782   -4.9996418406   -1.2918289313
H        5.2915273275   -2.4898638214    0.0275718684
H        2.2727740936    1.7730979460    1.1844825612
H        1.1177712910    1.6591891381   -0.1627544150
H        0.5920296838    1.3053544045    1.4927748171
H        0.9389113199   -0.8446275570    0.1893229423
H        2.0963506502   -0.7348371131    1.5432709756
H        5.6428528669   -5.2141810507   -0.3571392337
19   
torsion grid (0,)
C        2.6372678533   -4.1825989264   -1.0188015898
C        4.3754025318   -2.9432487849   -0.3467887232
C        3.9950389909   -4.2467461795   -0.5978660904
C        1.4244578222    1.2011242849    0.8020805874
C        1.7647408408   -0.2763722283    0.6175122441
N        2.1956488382   -2.9282347944   -1.0373390114
N        3.2520150724   -2.1872806097   -0.6246915226
O        4.3925480533   -0.0407674631    0.0445198904
O        2.7053865496    0.0359817114   -1.8638371635
O        4.7020061554   -5.4125541245   -0.4930987024
S        3.1272108603   -0.4579734115   -0.5602616677
H        1.9865008591   -5.0012545611   -1.2997024902
H        5.2960237939   -2.4858990722   -0.0136823425
H        2.2773473595    1.7599628309    1.1955204993
H        1.1101279030    1.6525481176   -0.1416540770
H        0.6004703090    1.2866526680    1.5162871078
H        0.9397671212   -0.8538654829    0.1952665866
H        2.1092990926   -0.7505755260    1.5393007283
H        5.6021716862   -5.2170498950   -0.1902857696
19   
torsion grid (15,)
C        3.9873202957   -3.9990356706   -0.3634089359
C        2.1862731515   -3.3308853320   -1.5123016837
C        2.9221669204   -4.4541765234   -1.1896500666
C        1.8767356252    1.2594562032    0.9433601604
C        2.1978396265   -0.2232756665    0.7666107068
N        3.9328571073   -2.6816634559   -0.1881696746
N        2.8402652215   -2.2873718227   -0.8858840539
O        3.5893920456    0.1328721695   -1.4867076363
O        1.1561905038   -0.5945243257   -1.6964598564
O        2.7238970838   -5.7668834642   -1.5203455795
S        2.4358598053   -0.6027467341   -0.9871003611
H        4.7711764274   -4.5860044199    0.0988801698
H        1.2982752358   -3.1664546952   -2.1056165167
H        2.6936341323    1.8847077275    0.5759760453
H        0.9576129876    1.5330182412    0.4190648315
H        1.7373443153    1.4654491166    2.0084799170
H        1.3874360289   -0.8754925587    1.0999596941
H        3.1291501943   -0.5184388400    1.2543875798
H        2.0821176512   -5.8227755264   -2.2450286180
19   
torsion grid (30,)
C        3.9711308333   -4.0002004373   -0.3630085551
C        2.1629153382   -3.3327958999   -1.4991730617
C        2.9020711301   -4.4563652533   -1.1833883973
C        1.8879877161    1.2717820898    0.9359897326
C        2.1998045938   -0.2136747938    0.7654992494
N        3.9172988528   -2.6833643690   -0.1839321770
N        2.8216687807   -2.2902896158   -0.8786673520
O        3.5774763506    0.1232056630   -1.4998094343
O        1.1397318225   -0.5939647367   -1.6886243294
O        2.6828530092   -5.7718313399   -1.4970063456
S        2.4238743913   -0.6037109320   -0.9875857807
H        4.7558571916   -4.5877437461    0.0971126385
H        1.2696605602   -3.1692363417   -2.0847120483
H        2.7058070497    1.8904986460    0.5597018405
H        0.9668506437    1.5474799929    0.4163734203
H        1.7568721873    1.4843760974    2.0008486948
H        1.3881049194   -0.8596401927    1.1077123731
H        3.1327668136   -0.5113284023    1.2485741554
H        2.2138236094   -5.8268054119   -2.3437931202
19   
torsion grid (45,)
C        3.9582036849   -4.0060071041   -0.3604810248
C        2.1440268657   -3.3341679188   -1.4848444563
C        2.8825262979   -4.4599461478   -1.1729756027
C        1.8969449505    1.2743554627    0.9419848764
C        2.2029441017   -0.2122708073    0.7710131490
N        3.9097193999   -2.6883063814   -0.1849276916
N        2.8100580401   -2.2930478885   -0.8743834879
O        3.5706702586    0.1171705080   -1.5019394996
O        1.1291675932   -0.5903669561   -1.6775593662
O        2.6387044795   -5.7759980919   -1.4773351406
S        2.4165841444   -0.6040733496   -0.9829308733
H        4.7429695781   -4.5952341066    0.0976651154
H        1.2456018252   -3.1712012349   -2.0624494466
H        2.7148534558    1.8901191307    0.5610667896
H        0.9740063208    1.5527481849    0.4270390505
H        1.7721179468    1.4880500107    2.0073679040
H        1.3908635255   -0.8553232709    1.1177735824
H        3.1374432532   -0.5127231123    1.2493528132
H        2.3717243687   -5.8470575847   -2.4067276473
19   
torsion grid (60,)
C        3.9407408846   -4.0113245307   -0.3611847458
C        2.1239279268   -3.3326729191   -1.4765529902
C        2.8567006825   -4.4624872515   -1.1642115444
C        1.9062182784    1.2737875021    0.9493027199
C        2.2068815241   -0.2135163476    0.7746435322
N        3.9030318965   -2.6924701118   -0.1918797202
N        2.8002117508   -2.2944814878   -0.8772540150
O        3.5657720620    0.1136415945   -1.5044191552
O        1.1204480863   -0.5835957738   -1.6695240008
O        2.5853653058   -5.7766963359   -1.4660355773
S        2.4108389256   -0.6028759909   -0.9809994400
H        4.7245614715   -4.6029999621    0.0957043921
H        1.2212582818   -3.1693269104   -2.0472681621
H        2.7241616777    1.8876933083    0.5654635643
H        0.9816355851    1.5557717342    0.4393038701
H        1.7872096787    1.4861013738    2.0156173375
H        1.3944563213   -0.8546272494    1.1242026621
H        3.1427880647   -0.5176052695    1.2478921942
H        2.5399755062   -5.8830372164   -2.4288921343
19   
torsion grid (75,)
C        3.9226544119   -4.0164269050   -0.3687347923
C        2.1053387727   -3.3267394984   -1.4763003663
C        2.8274777812   -4.4622742048   -1.1602937015
C        1.9137863381    1.2681796842    0.9615187494
C        2.2113504415   -0.2186519965    0.7776533175
N        3.8998107736   -2.6962717367   -0.2080299229
N        2.7947364759   -2.2925989029   -0.8886832955
O        3.5656869438    0.1158600006   -1.5033808884
O        1.1169638989   -0.5711030852   -1.6652943244
O        2.5245767246   -5.7717589591   -1.4615781060
S        2.4091530834   -0.5985024577   -0.9808594620
H        4.7045981501   -4.6117204533    0.0870195410
H        1.1994151853   -3.1611867573   -2.0410715075
H        2.7315988877    1.8828532789    0.5786187510
H        0.9880964155    1.5545503402    0.4560155510
H        1.7984825768    1.4746693681    2.0293814220
H        1.3988105237   -0.8602377926    1.1261252952
H        3.1482082469   -0.5270144584    1.2462146971
H        2.7017474244   -5.9342361488   -2.4013624519
19   
torsion grid (90,)
C        3.9039192473   -4.0218158182   -0.3783436767
C        2.0876858390   -3.3176354808   -1.4788929483
C        2.7952968217   -4.4599704953   -1.1564973683
C        1.9183071731    1.2590510810    0.9784184893
C        2.2153756809   -0.2262317033    0.7816209454
N        3.8998055136   -2.6999640072   -0.2306660126
N        2.7929503653   -2.2877646309   -0.9044905808
O        3.5705229885    0.1226255313   -1.4968981130
O        1.1187878722   -0.5539299724   -1.6632250986
O        2.4579763911   -5.7620161399   -1.4567697637
S        2.4113457557   -0.5915318709   -0.9803588816
H        4.6835889311   -4.6212586026    0.0763055123
H        1.1794618495   -3.1482885020   -2.0386265024
H        2.7358747030    1.8768150336    0.5999749674
H        0.9921843412    1.5498079652    0.4762481972
H        1.8040956970    1.4564995182    2.0481160892
H        1.4029248236   -0.8704194161    1.1255502066
H        3.1526176372   -0.5387287167    1.2466501041
H        2.8404098139   -6.0015906603   -2.3157140249
19   
torsion grid (105,)
C        3.8844854206   -4.0253796203   -0.3930727105
C        2.0694330988   -3.3053365187   -1.4848578339
C        2.7624198195   -4.4545423066   -1.1582606027
C        1.9194184135    1.2463497855    1.0002226806
C        2.2178970357   -0.2365228613    0.7880042354
N        3.9006839319   -2.7025444076   -0.2556523423
N        2.7924800061   -2.2814632998   -0.9209497754
O        3.5786902990    0.1316771921   -1.4839875861
O        1.1242754081   -0.5340770532   -1.6613047833
O        2.3925373000   -5.7471305013   -1.4582373573
S        2.4158435080   -0.5835491692   -0.9776453825
H        4.6630021807   -4.6296955448    0.0574897857
H        1.1603339296   -3.1295185069   -2.0409089760
H        2.7367781884    1.8687763925    0.6290094022
H        0.9935050776    1.5414775623    0.5002436637
H        1.8040954959    1.4325099202    2.0718380875
H        1.4055554111   -0.8847699030    1.1245730386
H        3.1549474193   -0.5530832941    1.2506779629
H        2.9457362141   -6.0769201369   -2.1840177030
19   
torsion grid (120,)
C        3.8700553137   -4.0275927399   -0.4145517278
C        2.0558954863   -3.2923593048   -1.4975598491
C        2.7399094782   -4.4470807333   -1.1738481366
C        1.9194978165    1.2356246070    1.0214868307
C        2.2183158212   -0.2450291045    0.7947135251
N        3.8982582100   -2.7044034971   -0.2789099241
N        2.7898283361   -2.2738328819   -0.9355103933
O        3.5829552080    0.1423014830   -1.4714305866
O        1.1265426097   -0.5145342054   -1.6580585669
O        2.3468365083   -5.7297143056   -1.4791472127
S        2.4174563872   -0.5748957671   -0.9742381428
H        4.6479499413   -4.6362069698    0.0317655237
H        1.1466771305   -3.1100279630   -2.0510006130
H        2.7369606593    1.8618134206    0.6568594379
H        0.9938568640    1.5354497312    0.5238118990
H        1.8034986105    1.4113146160    2.0948102365
H        1.4057675265   -0.8965428312    1.1244633348
H        3.1550793273   -0.5659570485    1.2549459782
H        3.0271164088   -6.1478141878   -2.0301293452
19   
torsion grid (135,)
C        3.8607916327   -4.0281844077   -0.4391893085
C        2.0461735643   -3.2809767718   -1.5128263364
C        2.7269710372   -4.4394523104   -1.1974906578
C        1.9195302180    1.2267935125    1.0397228119
C        2.2176854018   -0.2521607358    0.8012886790
N        3.8940258242   -2.7052715277   -0.2964171012
N        2.7859180658   -2.2677429042   -0.9453418285
O        3.5844701630    0.1509038989   -1.4603734446
O        1.1265990782   -0.4992335120   -1.6536621415
O        2.3239842709   -5.7122854150   -1.5198705477
S        2.4172027790   -0.5682346378   -0.9702175125
H        4.6402101002   -4.6401400741    0.0003983911
H        1.1379577770   -3.0923020769   -2.0654632008
H        2.7373880017    1.8554366447    0.6802221249
H        0.9942150905    1.5309268535    0.5440600871
H        1.8032563056    1.3941968551    2.1143522270
H        1.4046501265   -0.9057646384    1.1256910947
H        3.1541062233   -0.5771226506    1.2593775569
H        3.0836811875   -6.2074515440   -1.8637410279
19   
torsion grid (150,)
C        3.8583107917   -4.0286600163   -0.4641627475
C        2.0419424485   -3.2725159214   -1.5284729636
C        2.7245667840   -4.4331090156   -1.2254992138
C        1.9189844352    1.2194328003    1.0554481118
C        2.2160154879   -0.2582727590    0.8080458645
N        3.8890509975   -2.7065219840   -0.3072828080
N        2.7817815934   -2.2635917789   -0.9504042340
O        3.5832626441    0.1575582547   -1.4506452889
O        1.1247002422   -0.4887971849   -1.6481246353
O        2.3229886981   -5.6973289778   -1.5724723447
S        2.4152930472   -0.5637918723   -0.9653622005
H        4.6402439357   -4.6430790714   -0.0319029034
H        1.1350519697   -3.0785743099   -2.0811842831
H        2.7373471915    1.8495916072    0.6997647504
H        0.9939755373    1.5272485798    0.5614845433
H        1.8027077023    1.3805389924    2.1310474505
H        1.4024351389   -0.9131644038    1.1284608665
H        3.1521337100   -0.5866693303    1.2642856120
H        3.1064123385   -6.2559250708   -1.6916526254
19   
torsion grid (165,)
C        3.8591642752   -4.0303518646   -0.4750586809
C        2.0421252528   -3.2702480055   -1.5343562552
C        2.7346683695   -4.4301614191   -1.2516250684
C        1.9190154238    1.2119145045    1.0831678958
C        2.2123422889   -0.2657617225    0.8311227111
N        3.8773514926   -2.7110604194   -0.2903516826
N        2.7716885329   -2.2666527462   -0.9321486045
O        3.5735724198    0.1564066539   -1.4298257217
O        1.1146789329   -0.4890698805   -1.6230370846
O        2.3537212679   -5.6859428411   -1.6427658588
S        2.4068316677   -0.5664543163   -0.9435300633
H        4.6443937487   -4.6459383747   -0.0500102998
H        1.1372510185   -3.0725122039   -2.0888706298
H        2.7378902120    1.8412871181    0.7272797905
H        0.9935494755    1.5230651746    0.5921496483
H        1.8055279099    1.3704030792    2.1594526460
H        1.3981088294   -0.9198341375    1.1514723756
H        3.1487547230   -0.5973484333    1.2844255146
H        3.1038878828   -6.2903921236   -1.5356902475
19   
torsion grid (180,)
C        3.8658289341   -4.0257492082   -0.5037164580
C        2.0452308139   -3.2647382336   -1.5563186600
C        2.7451626944   -4.4233750336   -1.2865218713
C        1.9188597875    1.2110717845    1.0808812840
C        2.2105375830   -0.2663616719    0.8255197722
N        3.8734369836   -2.7087497618   -0.3010095233
N        2.7681674566   -2.2633478811   -0.9418705318
O        3.5675470282    0.1620035814   -1.4366200131
O        1.1091959161   -0.4855240069   -1.6274913703
O        2.3820414987   -5.6733206629   -1.7095915423
S        2.4024047828   -0.5633035053   -0.9500041443
H        4.6547602297   -4.6411302811   -0.0850199655
H        1.1415427674   -3.0656887337   -2.1122364230
H        2.7379778861    1.8403571421    0.7254191135
H        0.9932195706    1.5241390922    0.5913988410
H        1.8065681823    1.3675277948    2.1575864443
H        1.3961098678   -0.9203574038    1.1454923980
H        3.1472178865   -0.5996928895    1.2769723975
H        3.0344462064   -6.3154936816   -1.3911586000
