20   
torsion grid (-165,)
C        0.3407006649    0.4071423921   -0.6014046966
C       -0.5402710649   -0.4283042825   -0.0131654803
C        1.5863482574    0.9444371181    0.0712631728
C        0.1970915233    0.9012650152   -2.0244726903
C       -1.7339108691   -1.0530290416   -0.7005954522
C       -0.4220092607   -0.8446984900    1.4324894684
N       -0.1721381460   -3.3919190892    3.5937300284
N        0.0562982358   -2.2634201781    1.5057089169
N       -0.0872930481   -2.8004251699    2.6135865293
H        2.4364807195    0.8666424006   -0.6170306046
H        1.8622140282    0.4171604601    0.9848239877
H        1.4747729065    2.0105342349    0.3087202536
H        0.4089372039    1.9764550118   -2.0697720725
H       -0.7948926407    0.7422715003   -2.4478219001
H        0.9301086751    0.4112154476   -2.6787757461
H       -1.7627431317   -2.1258462196   -0.4775820559
H       -2.6746906815   -0.6244123369   -0.3295030247
H       -1.7182645704   -0.9452683755   -1.7851076574
H        0.2595235648   -0.2074008208    2.0001272588
H       -1.4094327414   -0.7780555732    1.9097307870
20   
torsion grid (-150,)
C        0.3515873828    0.4199684462   -0.6035955611
C       -0.5034529805   -0.4238570338    0.0105328270
C        1.5965859607    0.9920053216    0.0410634309
C        0.1760182849    0.8901715723   -2.0311848075
C       -1.6963334635   -1.0798567529   -0.6487726752
C       -0.3544817397   -0.8172785148    1.4605607654
N       -0.4907866082   -3.5190364519    3.4477135827
N        0.1567827209   -2.2235584196    1.5540041157
N       -0.2093565906   -2.8484406857    2.5593999573
H        2.4373207239    0.9203028425   -0.6593457792
H        1.8969892129    0.4847187181    0.9581507578
H        1.4672299019    2.0593204604    0.2636367593
H        0.3648861181    1.9686966675   -2.0950550399
H       -0.8187228599    0.7047926598   -2.4369746256
H        0.9091553770    0.4058140431   -2.6895836594
H       -1.7060852748   -2.1488690149   -0.4065069399
H       -2.6388281362   -0.6584530603   -0.2737625795
H       -1.6965308487   -0.9930359830   -1.7352745783
H        0.3284540040   -0.1630901409    2.0058553110
H       -1.3336015599   -0.7559706705    1.9540877609
20   
torsion grid (-135,)
C        0.3605743297    0.4282725516   -0.6005389192
C       -0.4733937882   -0.4167547794    0.0406147866
C        1.6033575918    1.0337734910    0.0173372598
C        0.1613690675    0.8662185250   -2.0353226080
C       -1.6633414665   -1.1043812788   -0.5913547915
C       -0.3011809841   -0.7797876960    1.4970630650
N       -0.7576418765   -3.6297447923    3.2241917048
N        0.2404148037   -2.1723013995    1.6239265768
N       -0.3140522234   -2.8832831959    2.4727532923
H        2.4371039495    0.9602764945   -0.6911932777
H        1.9223270377    0.5515430399    0.9415804756
H        1.4591656713    2.1034789872    0.2182035357
H        0.3314880581    1.9461727391   -2.1231048475
H       -0.8344355478    0.6563785351   -2.4263072493
H        0.8952557357    0.3806458236   -2.6919822787
H       -1.6506086611   -2.1704898694   -0.3360372268
H       -2.6080138837   -0.6956270124   -0.2079919540
H       -1.6816452281   -1.0332297486   -1.6787934191
H        0.3828232122   -0.1085164371    2.0179101789
H       -1.2727361729   -0.7182999747    2.0039947185
20   
torsion grid (-120,)
C        0.3110042101    0.3750702093   -0.7149302654
C       -0.4404284229   -0.5002857137   -0.0142304371
C        1.2591857588    1.3800002213   -0.0955177547
C        0.2848108029    0.4712403915   -2.2251044796
C       -1.4588790562   -1.4433939194   -0.6148514364
C       -0.3549081487   -0.6267356244    1.4903697640
N       -1.2767959860    1.7666911465    3.6546189523
N       -1.5780518764   -0.0451271518    2.1369871822
N       -1.3644045016    0.8915245768    2.9151352834
H        2.3018112079    1.1269526853   -0.3278109617
H        1.1679522126    1.4799036070    0.9864036715
H        1.0767169370    2.3712750755   -0.5280280165
H       -0.2278349632    1.3881329332   -2.5447942844
H       -0.2001939085   -0.3751366799   -2.7116323729
H        1.3084901301    0.5354019317   -2.6136131283
H       -1.1053564276   -2.4824697982   -0.5759283555
H       -2.3855178629   -1.4009907100   -0.0311979956
H       -1.7125705843   -1.2109380937   -1.6491741662
H       -0.3526120132   -1.6880125615    1.7635291196
H        0.5484275264   -0.1797878537    1.9070202478
20   
torsion grid (-105,)
C        0.3050263319    0.3728614467   -0.6845911177
C       -0.4330208480   -0.5237064013    0.0039456306
C        1.2660653681    1.3585261188   -0.0535617008
C        0.2512218069    0.5143155092   -2.1905701378
C       -1.4590883393   -1.4529273248   -0.6053129492
C       -0.3250787695   -0.6889015704    1.5043214106
N       -1.2998217506    1.9501431623    3.3282836630
N       -1.5346986310   -0.1340646959    2.1970536433
N       -1.3566956450    0.9502015241    2.7658541838
H        2.3035495341    1.1098341577   -0.3121336718
H        1.1951453728    1.4274651500    1.0322126166
H        1.0784157540    2.3622295406   -0.4538302325
H       -0.2700613130    1.4386611415   -2.4725957967
H       -0.2399883576   -0.3185144675   -2.6939105123
H        1.2673780803    0.5941959267   -2.5955223429
H       -1.1030689647   -2.4918264700   -0.5969615319
H       -2.3772801400   -1.4270695840   -0.0075631668
H       -1.7276765115   -1.1959757721   -1.6300025044
H       -0.3251655530   -1.7553585196    1.7512102332
H        0.5856876095   -0.2567742003    1.9209248505
20   
torsion grid (-90,)
C        0.3054302028    0.3724116883   -0.6527203684
C       -0.4220593229   -0.5388871039    0.0283348625
C        1.2878494295    1.3356215070   -0.0199928229
C        0.2181075328    0.5536813394   -2.1528887963
C       -1.4614717047   -1.4512692889   -0.5850953188
C       -0.2892799959   -0.7394129834    1.5227874332
N       -1.3874307984    2.0722266281    2.9713028459
N       -1.4780785378   -0.2014571333    2.2615597849
N       -1.3771951003    0.9845798442    2.6041485992
H        2.3144267497    1.1002594690   -0.3293580769
H        1.2605768589    1.3599135777    1.0694863173
H        1.0830044273    2.3540921911   -0.3715212752
H       -0.2943159727    1.4933326831   -2.3980864648
H       -0.2985881794   -0.2577088648   -2.6655136904
H        1.2254768152    0.6281207495   -2.5802089456
H       -1.0970833153   -2.4862633698   -0.6319234863
H       -2.3597186532   -1.4587018451    0.0424463914
H       -1.7655205687   -1.1548470064   -1.5890542108
H       -0.2947334510   -1.8093701977    1.7488854626
H        0.6314486185   -0.3230072122    1.9346623259
20   
torsion grid (-75,)
C        0.3096797809    0.3737005854   -0.6225109568
C       -0.4076627357   -0.5490270234    0.0544366921
C        1.3171799205    1.3125921449    0.0073223200
C        0.1856558270    0.5920917956   -2.1151307021
C       -1.4677171791   -1.4397012143   -0.5569890687
C       -0.2462802162   -0.7803524317    1.5412768863
N       -1.5170540716    2.1242405909    2.6056627035
N       -1.4032528743   -0.2408211203    2.3272352324
N       -1.4114657670    0.9937559538    2.4407543403
H        2.3315533257    1.0811886788   -0.3424641660
H        1.3258382664    1.3026564334    1.0972287775
H        1.1069379004    2.3423639597   -0.3057727639
H       -0.3221958943    1.5428482383   -2.3240883027
H       -0.3532582771   -0.2010237178   -2.6333806097
H        1.1824268254    0.6660522852   -2.5666105640
H       -1.1062997699   -2.4725067670   -0.6509706797
H       -2.3460462658   -1.4690374937    0.0974344444
H       -1.8026398781   -1.1090817263   -1.5402640630
H       -0.2639254569   -1.8522975566    1.7533250429
H        0.6893715740   -0.3843269429    1.9407560039
20   
torsion grid (-60,)
C        0.3155089084    0.3751997096   -0.5957545948
C       -0.3925559069   -0.5572642973    0.0777162750
C        1.3433859688    1.2927937310    0.0321135872
C        0.1588162807    0.6270854991   -2.0797850005
C       -1.4747660198   -1.4254392696   -0.5284860565
C       -0.2049522265   -0.8124908419    1.5565611166
N       -1.6538936137    2.1193444624    2.2614486873
N       -1.3116828858   -0.2366863742    2.3893799929
N       -1.4422061245    0.9923772647    2.2875438911
H        2.3469696902    1.0664164757   -0.3504282099
H        1.3805422350    1.2527762939    1.1207324537
H        1.1295438381    2.3314308610   -0.2473457452
H       -0.3471850836    1.5853455733   -2.2558838126
H       -0.3972665761   -0.1510932078   -2.6025169712
H        1.1454977959    0.7045036267   -2.5522489727
H       -1.1233834355   -2.4577002560   -0.6587529940
H       -2.3362503897   -1.4672456943    0.1474924813
H       -1.8333475377   -1.0671873011   -1.4935929134
H       -0.2566251326   -1.8840080585    1.7630701294
H        0.7546952497   -0.4548435248    1.9359872228
20   
torsion grid (-45,)
C        0.3178524479    0.3756213496   -0.5755265751
C       -0.3802495110   -0.5676615982    0.0929072558
C        1.3539135049    1.2794473266    0.0582319694
C        0.1385725369    0.6567597297   -2.0512494493
C       -1.4786510865   -1.4186080891   -0.5087733822
C       -0.1714930547   -0.8376778173    1.5653909014
N       -1.7619391985    2.0869761380    1.9790844445
N       -1.1962992579   -0.1811589599    2.4449147830
N       -1.4482094120    0.9989169242    2.1622176383
H        2.3510769189    1.0671412260   -0.3483097946
H        1.4100811720    1.2092914092    1.1446095803
H        1.1312253879    2.3245270112   -0.1883851855
H       -0.3691361324    1.6185788968   -2.2003115802
H       -0.4264799652   -0.1106404713   -2.5803278502
H        1.1179301619    0.7425677970   -2.5372559937
H       -1.1408220939   -2.4535650040   -0.6519504762
H       -2.3336430325   -1.4579198313    0.1761509639
H       -1.8447860152   -1.0477227852   -1.4662659002
H       -0.2907595496   -1.9025582773    1.7775434660
H        0.8226612133   -0.5490003027    1.9145557512
20   
torsion grid (-30,)
C        0.3211026168    0.3757644376   -0.5653950110
C       -0.3706103983   -0.5741571862    0.1000289198
C        1.3595673191    1.2705875226    0.0764121540
C        0.1281776225    0.6797438790   -2.0341765841
C       -1.4833402485   -1.4116230779   -0.4927591356
C       -0.1417178270   -0.8522651351    1.5676419056
N       -1.8809642925    2.0205065608    1.7881299573
N       -1.0636533282   -0.1046870452    2.4901758001
N       -1.4552277610    0.9953922995    2.0792032479
H        2.3508163993    1.0830131150   -0.3556310576
H        1.4363412532    1.1661752818    1.1589039479
H        1.1202998531    2.3204446622   -0.1321171580
H       -0.3729158687    1.6477708707   -2.1631904023
H       -0.4490983738   -0.0747779229   -2.5685281492
H        1.1030176873    0.7645151936   -2.5294333109
H       -1.1736102136   -2.4595748297   -0.5984489934
H       -2.3502413042   -1.4070339381    0.1791290094
H       -1.8252593078   -1.0605166047   -1.4663684446
H       -0.3353085343   -1.9039608422    1.7920334933
H        0.8834697407   -0.6420025691    1.8816403780
20   
torsion grid (-15,)
C        0.3214239908    0.3762944162   -0.5616385279
C       -0.3650021554   -0.5789119326    0.1013667985
C        1.3581697157    1.2650637928    0.0907867347
C        0.1231001237    0.6964945054   -2.0255689594
C       -1.4826832030   -1.4129380364   -0.4861380910
C       -0.1226434582   -0.8570037672    1.5674135140
N       -1.9876449460    1.9525887138    1.6801693937
N       -0.9205180798   -0.0055282035    2.5175557572
N       -1.4540935013    0.9992203333    2.0327352190
H        2.3459827595    1.0995996987   -0.3578242986
H        1.4476447931    1.1316929341    1.1692366051
H        1.1055825875    2.3175160331   -0.0870176301
H       -0.3604563251    1.6749741034   -2.1415688493
H       -0.4731189499   -0.0413715230   -2.5622647039
H        1.0955837538    0.7674627890   -2.5276972539
H       -1.1892547066   -2.4682081294   -0.5601698151
H       -2.3601252325   -1.3776666106    0.1715939716
H       -1.8044285936   -1.0820282016   -1.4735232840
H       -0.4034062757   -1.8848530912    1.8122488561
H        0.9267327375   -0.7390831525    1.8475551300
20   
torsion grid (0,)
C        0.3221426942    0.3778079316   -0.5635465277
C       -0.3601954789   -0.5814754964    0.0976806631
C        1.3591538729    1.2599276304    0.0970928486
C        0.1187376033    0.7144431424   -2.0225418650
C       -1.4753850030   -1.4202941680   -0.4858855799
C       -0.1117169594   -0.8537384508    1.5664611779
N       -2.1001104189    1.8749789645    1.6504784487
N       -0.7773087789    0.0966074722    2.5222048070
N       -1.4557833858    0.9984978578    2.0175350608
H        2.3391677896    1.1248924241   -0.3778471484
H        1.4717548865    1.0903603356    1.1682122518
H        1.0882860426    2.3142511375   -0.0393827189
H       -0.3338171936    1.7090616725   -2.1249407826
H       -0.5085721285    0.0024163587   -2.5584873092
H        1.0873182688    0.7579829129   -2.5354742904
H       -1.2127112836   -2.4859077429   -0.4718611541
H       -2.3832004896   -1.3145216513    0.1220759750
H       -1.7371123156   -1.1523479326   -1.5092505592
H       -0.4805203129   -1.8481250269    1.8356336026
H        0.9507176251   -0.8315026994    1.8190936662
20   
torsion grid (15,)
C        0.4138496243    0.3817476699   -0.4774473096
C       -0.3957088713   -0.4288273229    0.2367204726
C        1.5937747595    1.1198104344    0.1168880455
C        0.2587834429    0.6296772216   -1.9608756485
C       -1.5143209184   -1.2662044111   -0.3448733787
C       -0.2014926102   -0.6374880558    1.7211837346
N        2.1947231429   -2.6171409747    0.4085210664
N        0.7503408663   -1.7426818561    2.0888542686
N        1.4779241348   -2.1603938305    1.1801001198
H        2.4914277339    0.9201601694   -0.4808077627
H        1.8222710821    0.8424227189    1.1464048564
H        1.4292971163    2.2044532655    0.0823194038
H        0.3714745992    1.6991550555   -2.1752947986
H       -0.7040666793    0.3117796692   -2.3613163714
H        1.0487973351    0.1132632167   -2.5213424891
H       -1.4410087194   -2.2958195506    0.0263846553
H       -2.4959732052   -0.8887237455   -0.0296973829
H       -1.5037288792   -1.3132683895   -1.4339151712
H        0.1537332333    0.2635410411    2.2266080349
H       -1.1474928119   -0.9154148741    2.1938488055
20   
torsion grid (30,)
C        0.4102462689    0.3788563067   -0.4809423867
C       -0.4010469082   -0.4313607314    0.2324116699
C        1.5973776988    1.1134468906    0.1039485018
C        0.2478262417    0.6337687033   -1.9629558803
C       -1.5281634073   -1.2580335648   -0.3481940031
C       -0.2060359702   -0.6582390352    1.7137661236
N        2.3267332284   -2.5171455263    0.5060966832
N        0.6365940190   -1.8567527780    2.0503242833
N        1.5024537376   -2.1537102000    1.2169657210
H        2.4931656344    0.8964362667   -0.4904694684
H        1.8242950578    0.8506832080    1.1374309528
H        1.4430128650    2.1988864009    0.0537316308
H        0.3585711422    1.7042887628   -2.1730319278
H       -0.7162050660    0.3168659902   -2.3610501315
H        1.0359065978    0.1207504784   -2.5292597991
H       -1.4526662194   -2.2919797678    0.0100072697
H       -2.5045055190   -0.8814686726   -0.0159599852
H       -1.5315013236   -1.2907941501   -1.4376746683
H        0.2306483631    0.2067217763    2.2187621571
H       -1.1641020654   -0.8611729062    2.1983564076
20   
torsion grid (45,)
C        0.4082589231    0.3793742533   -0.4917947807
C       -0.3949065838   -0.4405767716    0.2199459577
C        1.5999347891    1.1162989407    0.0815883214
C        0.2223141331    0.6532906545   -1.9680895552
C       -1.5364251443   -1.2496053104   -0.3586741929
C       -0.1951422159   -0.6864505062    1.6978405725
N        2.4539555352   -2.4832626148    0.6943906218
N        0.5266172505   -1.9684222827    1.9988843595
N        1.5240239055   -2.1836767034    1.2954998625
H        2.4844849305    0.9243028576   -0.5375576020
H        1.8546716833    0.8361248752    1.1037902942
H        1.4304428941    2.2004721842    0.0582389200
H        0.3168367967    1.7281637806   -2.1638325200
H       -0.7431489278    0.3303554280   -2.3576389854
H        1.0090945975    0.1591470456   -2.5528271789
H       -1.4985707553   -2.2739718939    0.0298906896
H       -2.5064870414   -0.8330567150   -0.0565907934
H       -1.5204856863   -1.3128912349   -1.4468267413
H        0.3264757711    0.1320727815    2.1992865229
H       -1.1593404792   -0.8076413169    2.1967393782
20   
torsion grid (60,)
C        0.4029658844    0.3804126164   -0.5106912594
C       -0.3937002549   -0.4481832232    0.1985592706
C        1.6045868973    1.1079346028    0.0548968836
C        0.1929314133    0.6824307638   -1.9785890910
C       -1.5533438215   -1.2343268612   -0.3753768575
C       -0.1809319733   -0.7192884929    1.6712521513
N        2.5879653121   -2.4613058693    0.9674723842
N        0.4445670027   -2.0579117923    1.9303702493
N        1.5594818429   -2.2117327407    1.4096411218
H        2.4724844544    0.9475390137   -0.5957996773
H        1.8917436144    0.7942337658    1.0585118873
H        1.4251320452    2.1906397601    0.0757338915
H        0.2769417646    1.7618125765   -2.1538552643
H       -0.7757815947    0.3604325022   -2.3606352325
H        0.9746471875    0.2064780611   -2.5849614461
H       -1.5293218485   -2.2605624555    0.0083006955
H       -2.5136154204   -0.8017003659   -0.0644365143
H       -1.5464690179   -1.2920157385   -1.4639732350
H        0.4050167441    0.0557193059    2.1703023631
H       -1.1426958563   -0.7805579773    2.1855408296
20   
torsion grid (75,)
C        0.3925194523    0.3858548897   -0.5346780742
C       -0.3932608934   -0.4558283402    0.1712086910
C        1.6121319337    1.0928649991    0.0184572432
C        0.1512185051    0.7238330894   -1.9901459925
C       -1.5704054134   -1.2200969895   -0.3955903900
C       -0.1602656134   -0.7563250413    1.6359985926
N        2.7076404825   -2.4470073530    1.3145863885
N        0.4063859515   -2.1277045433    1.8494453347
N        1.6060419094   -2.2358005056    1.5559309807
H        2.4644628158    0.9377450823   -0.6539279364
H        1.9187008484    0.7584843808    1.0095639119
H        1.4430561658    2.1765298298    0.0628502504
H        0.2396101163    1.8063445900   -2.1425683152
H       -0.8285284754    0.4178778995   -2.3569785828
H        0.9149780549    0.2564745535   -2.6255715437
H       -1.5463403561   -2.2541932968   -0.0341882044
H       -2.5205946882   -0.7862703446   -0.0563320865
H       -1.5854972537   -1.2542669915   -1.4850897671
H        0.4669475205   -0.0146131270    2.1343847166
H       -1.1161966872   -0.7838553297    2.1649079339
20   
torsion grid (90,)
C        0.3824787175    0.3909709996   -0.5626076853
C       -0.3935570710   -0.4623167389    0.1396110776
C        1.6223826307    1.0705628647   -0.0203263100
C        0.1099009606    0.7704262058   -2.0021692834
C       -1.5894637787   -1.2035710062   -0.4169095154
C       -0.1341641933   -0.7952748096    1.5932418719
N        2.7832877223   -2.4348873893    1.6986298991
N        0.4138027883   -2.1816792190    1.7546581977
N        1.6497432262   -2.2541619570    1.7153855349
H        2.4545718771    0.9318304322   -0.7210370439
H        1.9539341821    0.7004485933    0.9499278987
H        1.4643652770    2.1535229207    0.0646345020
H        0.2001900747    1.8564625642   -2.1263800585
H       -0.8794139926    0.4791134525   -2.3549892182
H        0.8566952229    0.3178962497   -2.6678526397
H       -1.5574852664   -2.2492940755   -0.0911809762
H       -2.5275736098   -0.7791887218   -0.0347574494
H       -1.6370363900   -1.2011739970   -1.5059826695
H        0.5127039751   -0.0726020135    2.0933949718
H       -1.0827579770   -0.8170369034    2.1369720467
20   
torsion grid (105,)
C        0.3736445919    0.4024067709   -0.5909431347
C       -0.3871568917   -0.4655475289    0.1094826812
C        1.6306405448    1.0624808528   -0.0641827276
C        0.0669736222    0.8174863359   -2.0136852733
C       -1.5946042824   -1.1968772569   -0.4336357680
C       -0.0966674372   -0.8259890386    1.5501499675
N        2.7788397657   -2.4653932364    2.0829544364
N        0.4468080510   -2.2201170171    1.6584762899
N        1.6626114486   -2.2887022664    1.8773726394
H        2.4393459749    0.9499350590   -0.7964774868
H        1.9935182796    0.6557292020    0.8800196361
H        1.4776385278    2.1416729087    0.0662583371
H        0.1677561484    1.9048389549   -2.1163021558
H       -0.9353165003    0.5462912928   -2.3454097035
H        0.7892931288    0.3707190483   -2.7096176295
H       -1.5398533116   -2.2544313680   -0.1516536106
H       -2.5227520890   -0.7996972993   -0.0012078493
H       -1.6810939399   -1.1512602271   -1.5192557148
H        0.5679737633   -0.1175788093    2.0462124323
H       -1.0349950191   -0.8459189259    2.1137077848
20   
torsion grid (120,)
C        0.3675459645    0.4167589767   -0.6180158940
C       -0.3717407991   -0.4684402191    0.0832186278
C        1.6380721628    1.0651725664   -0.1104138562
C        0.0209387068    0.8627647087   -2.0220200644
C       -1.5891862659   -1.1934496325   -0.4458388308
C       -0.0466741457   -0.8533658737    1.5091163759
N        2.7051263182   -2.5314598112    2.4447927918
N        0.5099992842   -2.2460700763    1.5634171754
N        1.6515253746   -2.3366547315    2.0295736407
H        2.4269840443    0.9673744352   -0.8661461973
H        2.0249403485    0.6375790058    0.8149814260
H        1.4905214820    2.1414984424    0.0469689500
H        0.1126635217    1.9528889764   -2.1015145764
H       -0.9884646713    0.5931907559   -2.3329177239
H        0.7266290975    0.4370986242   -2.7475982587
H       -1.5256648564   -2.2554263979   -0.1827981950
H       -2.5091291503   -0.8061998489    0.0123460951
H       -1.6982426692   -1.1306345043   -1.5286228041
H        0.6291282928   -0.1512128543    1.9985841624
H       -0.9723676643   -0.8813650904    2.0951503063
20   
torsion grid (135,)
C        0.4715095821    0.4453586229   -0.6090153492
C       -0.2324129093   -0.3299219209    0.2418444006
C        1.6980504223    1.2440394519   -0.2210810294
C        0.1072174278    0.6238010259   -2.0669181201
C       -1.5119056015   -1.0573814749   -0.1081246082
C        0.1927500999   -0.5605600249    1.6730926695
N       -1.5140087837   -0.8859969414    4.5531623159
N       -0.6877006596    0.2145041698    2.6070977095
N       -1.0844747971   -0.4065160894    3.6022500770
H        2.6067015103    0.7966806812   -0.6449154903
H        1.8386289312    1.3510786189    0.8547150946
H        1.6243823036    2.2545359683   -0.6406244332
H       -0.3145560939    1.6227481305   -2.2395590427
H       -0.6054180110   -0.1137840634   -2.4366199314
H        1.0084955372    0.5547401348   -2.6881250888
H       -1.3461659765   -2.1407798428   -0.1808629264
H       -2.2530843009   -0.9006493153    0.6842044746
H       -1.9626045848   -0.7215579373   -1.0420354038
H        0.1191093212   -1.6307322062    1.9055922158
H        1.2235389128   -0.2555913595    1.8581047051
20   
torsion grid (150,)
C        0.4598773834    0.4398305744   -0.6087661307
C       -0.2624372468   -0.3470579162    0.2154172487
C        1.6719417148    1.2398271066   -0.1802075853
C        0.1333716839    0.6312626431   -2.0739174771
C       -1.5298584644   -1.0753614277   -0.1739193959
C        0.1268669871   -0.5898991837    1.6537843561
N       -1.2249311595   -0.7375883764    4.7230130098
N       -0.7903190094    0.1717891059    2.5625442095
N       -0.9779665996   -0.3462686463    3.6723440834
H        2.5938719031    0.8003172643   -0.5830873888
H        1.7824892907    1.3372563214    0.9000470919
H        1.6053865658    2.2539846144   -0.5920387332
H       -0.2894790743    1.6295745858   -2.2476044332
H       -0.5650131759   -0.1065033100   -2.4695468044
H        1.0511414423    0.5735484260   -2.6716978478
H       -1.3583813031   -2.1575208437   -0.2519448670
H       -2.2897343219   -0.9276399042    0.6020852190
H       -1.9573285312   -0.7325862005   -1.1162094306
H        0.0439363108   -1.6625683268    1.8741855854
H        1.1546179345   -0.2903808782    1.8677015294
20   
torsion grid (165,)
C        0.4466264651    0.4325002843   -0.6018690392
C       -0.2906163750   -0.3704855246    0.1929221170
C        1.6440716702    1.2315177790   -0.1324161234
C        0.1532713387    0.6446840696   -2.0711526580
C       -1.5456004873   -1.0976557395   -0.2366001326
C        0.0670863057   -0.6348933767    1.6348395197
N       -0.9403588416   -0.5259017783    4.8277823197
N       -0.8834407104    0.1030537091    2.5285194672
N       -0.8713848892   -0.2653062910    3.7119529719
H        2.5777852570    0.8023293691   -0.5189103659
H        1.7278815216    1.3134037286    0.9515739563
H        1.5825441401    2.2513860013   -0.5306698295
H       -0.2707705056    1.6433663900   -2.2397287810
H       -0.5318832654   -0.0905338758   -2.4937414515
H        1.0849051796    0.6004508619   -2.6482922624
H       -1.3669161420   -2.1774768413   -0.3294872366
H       -2.3218732192   -0.9671538658    0.5260295506
H       -1.9538378240   -0.7402836089   -1.1820203088
H       -0.0192157393   -1.7114990914    1.8368209886
H        1.0897784513   -0.3374865713    1.8766295371
20   
torsion grid (180,)
C        0.4331313929    0.4243554349   -0.5889734255
C       -0.3146899661   -0.3972808853    0.1763611145
C        1.6193576993    1.2181788497   -0.0834253307
C        0.1654257210    0.6644601821   -2.0589290256
C       -1.5586396650   -1.1209184607   -0.2896219044
C        0.0193348445   -0.6910257278    1.6178861569
N       -0.6903949001   -0.2690673433    4.8602546380
N       -0.9669799451    0.0037112622    2.5077534547
N       -0.7788845583   -0.1751181868    3.7194524413
H        2.5611109490    0.7999859709   -0.4623368725
H        1.6853074807    1.2790600924    1.0032282117
H        1.5607455494    2.2454891210   -0.4624857514
H       -0.2595139654    1.6646786805   -2.2157188725
H       -0.5089526517   -0.0647671000   -2.5083506305
H        1.1075870734    0.6349492296   -2.6196982137
H       -1.3741577284   -2.1985326349   -0.3956493927
H       -2.3500096799   -1.0055722210    0.4597207504
H       -1.9487998618   -0.7498025454   -1.2373580531
H       -0.0558512951   -1.7733417776    1.7938083769
H        1.0329258366   -0.3854263122    1.8862645674
