19   
torsion grid (-45,)
C        1.7539195498   -1.2811431242   -0.1151892249
C        0.8067591908   -0.4403287840    0.4800897541
C        2.7324563918   -1.8810297028    0.6727337308
C        0.8478185006   -0.2097773860    1.8563214613
C        4.1309785696   -2.3845992991    4.1731073808
C        5.6921257592   -3.6400331972    2.9559805346
C        2.8021064274   -1.6618841213    2.0641317902
C        1.8335924182   -0.8114166980    2.6452280457
C        3.8979137719   -2.2500825520    2.8242519632
N        4.7180893127   -3.2608693065    2.1684277503
O        1.8786148512   -0.6036956786    4.0021956753
S        5.8986855960   -2.5216057747    4.3187366763
H        1.7259969169   -1.4678528032   -1.1847560572
H        0.0351941760    0.0341616927   -0.1202272669
H        3.4724973502   -2.5396911024    0.2316794033
H        0.1084037500    0.4390176801    2.3239125770
H        3.6482786925   -1.7527404469    4.9129562221
H        6.4479705386   -4.3602630355    2.6577126393
H        1.1670678472    0.0091335163    4.2482984747
19   
torsion grid (-30,)
C        1.7514315606   -1.2906076423   -0.1106859531
C        0.8027819316   -0.4541933064    0.4866263280
C        2.7401189902   -1.8804877691    0.6734320112
C        0.8555719514   -0.2194926323    1.8613539702
C        4.1471543619   -2.2960159734    4.1811915528
C        5.6931335057   -3.6319781250    2.9400215983
C        2.8210088582   -1.6592501349    2.0628128953
C        1.8517163116   -0.8124892337    2.6445165985
C        3.9209995381   -2.2690673639    2.8199508748
N        4.7427358541   -3.2089566455    2.1550791544
O        1.9014992216   -0.5903562721    4.0016922724
S        5.8238661337   -2.7246477402    4.4408442160
H        1.7190488962   -1.4819681155   -1.1793951216
H        0.0237646631    0.0137705166   -0.1091612098
H        3.4812989599   -2.5335579509    0.2264002846
H        0.1174460682    0.4274978874    2.3337902692
H        3.6655144644   -1.6529310149    4.9051820930
H        6.4680852996   -4.3225757557    2.6225113094
H        1.1786819967    0.0101768500    4.2446527867
19   
torsion grid (-15,)
C        1.7488910973   -1.3045719094   -0.1074484691
C        0.7989350176   -0.4697570958    0.4891304667
C        2.7469010819   -1.8819587022    0.6748362499
C        0.8603705455   -0.2240981486    1.8613759656
C        4.1761842661   -2.2205878120    4.1786018665
C        5.7117870695   -3.6095504399    2.9294574129
C        2.8356358852   -1.6511551092    2.0615751915
C        1.8654093572   -0.8057123837    2.6420593145
C        3.9338666752   -2.2736447657    2.8212047380
N        4.7829967835   -3.1518687175    2.1445114716
O        1.9225540830   -0.5664205976    3.9974249980
S        5.7269073595   -2.9138835345    4.5338291871
H        1.7115496002   -1.5044433872   -1.1744797517
H        0.0131051078   -0.0110194551   -0.1048667553
H        3.4895232608   -2.5323982991    0.2265643614
H        0.1228265985    0.4233496034    2.3342679396
H        3.6738607138   -1.6066451364    4.9097090139
H        6.4985331817   -4.2829609052    2.6051008980
H        1.1940587562    0.0282087494    4.2376307631
19   
torsion grid (0,)
C        1.7406845456   -1.3202991196   -0.1048668702
C        0.7914858874   -0.4840622366    0.4906791728
C        2.7471496084   -1.8860370544    0.6753803166
C        0.8634207413   -0.2257998592    1.8600615956
C        4.2075397697   -2.1716147558    4.1697623657
C        5.7376420705   -3.5830562993    2.9203701583
C        2.8450936652   -1.6437288441    2.0592677406
C        1.8762247431   -0.7965267216    2.6388335743
C        3.9370235941   -2.2767801208    2.8217921496
N        4.8303537786   -3.0920020739    2.1320997990
O        1.9449017198   -0.5397225318    3.9908270123
S        5.6017303885   -3.1046229927    4.5929470818
H        1.6967489137   -1.5299851870   -1.1697732609
H       -0.0006893510   -0.0338049992   -0.1013964776
H        3.4898019224   -2.5363124099    0.2270104360
H        0.1281242526    0.4245423501    2.3325060257
H        3.6692782985   -1.6062479264    4.9130876608
H        6.5326236597   -4.2439709791    2.5912556235
H        1.2151568759    0.0536440711    4.2302777960
19   
torsion grid (15,)
C        1.7285007622   -1.3321338645   -0.1011911879
C        0.7803844960   -0.4948118744    0.4947997863
C        2.7433785913   -1.8866895650    0.6758938672
C        0.8609005943   -0.2233408623    1.8611819530
C        4.2457983179   -2.1263083837    4.1571635207
C        5.7552344359   -3.5506942806    2.9160199152
C        2.8493258021   -1.6325762152    2.0573384778
C        1.8815745553   -0.7837770543    2.6370570964
C        3.9329571324   -2.2748523765    2.8214521083
N        4.8724458675   -3.0306558943    2.1169480313
O        1.9630488292   -0.5115210013    3.9849366981
S        5.4535603862   -3.2841852037    4.6178281078
H        1.6773993421   -1.5506453808   -1.1639891296
H       -0.0179032829   -0.0529488107   -0.0953662947
H        3.4863497179   -2.5366520397    0.2275073490
H        0.1274787596    0.4296852294    2.3328124990
H        3.6721808232   -1.6089726964    4.9102233465
H        6.5595111962   -4.2003449275    2.5862461261
H        1.2325312831    0.0803719071    4.2257586057
19   
torsion grid (30,)
C        1.7157162728   -1.3389027408   -0.0997445802
C        0.7666892459   -0.5030126299    0.4977013102
C        2.7395759826   -1.8811495910    0.6735479413
C        0.8550996730   -0.2200785176    1.8614749163
C        4.3069332334   -2.0795814262    4.1319885041
C        5.7722287556   -3.5248158358    2.9156134035
C        2.8524361866   -1.6166372263    2.0530998300
C        1.8840096550   -0.7687100632    2.6345468166
C        3.9243810614   -2.2644561397    2.8188536608
N        4.9146525273   -2.9760493568    2.1021290964
O        1.9794055118   -0.4848152175    3.9776960144
S        5.2898061241   -3.4480421150    4.6050458989
H        1.6579649142   -1.5646085345   -1.1606537542
H       -0.0383531638   -0.0702908792   -0.0900733403
H        3.4847902538   -2.5287480009    0.2252652295
H        0.1218122758    0.4334581267    2.3324339435
H        3.7114596185   -1.5907006233    4.8910036644
H        6.5900601758   -4.1573260792    2.5849009471
H        1.2457443517    0.1010257867    4.2240010853
19   
torsion grid (45,)
C        1.7068094606   -1.3448653328   -0.1007526820
C        0.7537544434   -0.5120453935    0.4963523872
C        2.7375006045   -1.8741179897    0.6711201785
C        0.8425952280   -0.2167943570    1.8578909328
C        4.3820359743   -2.0445149232    4.0958118393
C        5.7826920309   -3.5173178631    2.9280324381
C        2.8491464499   -1.5981114084    2.0496043946
C        1.8774103607   -0.7520172123    2.6317045371
C        3.9003950874   -2.2466750084    2.8234223181
N        4.9576233257   -2.9363644363    2.0946649325
O        1.9845750666   -0.4601422318    3.9695612855
S        5.1001313520   -3.6032398877    4.5643039877
H        1.6459958024   -1.5761107429   -1.1602055194
H       -0.0559092019   -0.0891510431   -0.0922384741
H        3.4887805448   -2.5175487912    0.2265991905
H        0.1062102086    0.4360973787    2.3245600429
H        3.7999567641   -1.5472818076    4.8662423747
H        6.6259004563   -4.1192090705    2.6028822555
H        1.2437717370    0.1130542318    4.2246718641
