24   
torsion grid (-165,)
C       -1.0386031578   -1.6210163367   -0.2203232632
C       -0.3023761106   -0.2942523243    0.0391132572
C       -1.0486605935    0.5194706521    1.1099038818
C        1.1198499688   -0.6158773615    0.5338214007
C       -0.2481413904    0.4994899719   -1.3017152300
C        0.7271717797    1.6463549314   -1.3328400917
C        1.8857188598    1.7142278233   -2.0066722786
C        2.5038598560    0.6603265017   -2.8858288330
H       -0.4870501655   -2.2425319753   -0.9347265263
H       -1.1525278542   -2.1953737020    0.7063602995
H       -2.0409309112   -1.4472370411   -0.6304222982
H       -0.5529575825    1.4775182239    1.3007565636
H       -2.0793340926    0.7287539759    0.8002607670
H       -1.0883436529   -0.0266402079    2.0594619263
H        1.6737108224    0.2923059672    0.7878977817
H        1.0803319423   -1.2525565659    1.4252800514
H        1.6934798295   -1.1481032139   -0.2337959093
H       -0.0098444288   -0.2070808189   -2.1031264827
H       -1.2569707188    0.8763717310   -1.5169350058
H        0.4554212009    2.5150173157   -0.7317613914
H        2.4676044903    2.6316015456   -1.9087029215
H        2.6888484592    1.0528581043   -3.8934841160
H        1.8831782437   -0.2331820090   -2.9804509018
H        3.4772113928    0.3495336002   -2.4852007627
24   
torsion grid (-150,)
C       -0.8668422774   -1.4719123218   -0.3667508519
C       -0.2655231677   -0.1126301130    0.0344247314
C       -1.1146300506    0.5418733828    1.1368125215
C        1.1571545521   -0.3649749439    0.5697055746
C       -0.2368121243    0.8064809146   -1.2337415195
C        0.8714920055    1.8245858347   -1.2768271169
C        1.9491249168    1.8229619274   -2.0763463905
C        2.3266246280    0.7997603855   -3.1140640112
H       -0.2259205446   -1.9820969543   -1.0943806155
H       -0.9752229140   -2.1278835735    0.5049568453
H       -1.8590108386   -1.3518297140   -0.8190003285
H       -0.7262548594    1.5333205023    1.3973599336
H       -2.1553958110    0.6633049277    0.8146317649
H       -1.1137667863   -0.0652439526    2.0495465442
H        1.6210641246    0.5528814689    0.9422140152
H        1.1289691272   -1.0890577497    1.3923690636
H        1.8099177725   -0.7677287885   -0.2125017495
H       -0.1656086242    0.1647544539   -2.1168942183
H       -1.2043608716    1.3186321872   -1.3116809689
H        0.7833973783    2.6514811443   -0.5702268808
H        2.6533289883    2.6486129774   -1.9665818229
H        2.4318511960    1.2659874654   -4.1016561001
H        1.5984767467   -0.0096856016   -3.1997467801
H        3.2985682087    0.3504610077   -2.8733374397
24   
torsion grid (-135,)
C       -0.6048275653   -1.2178698876   -0.6780212519
C       -0.1444043522    0.1415595005   -0.1200348557
C       -1.1504955103    0.6451244122    0.9294082965
C        1.2244705672   -0.0633187794    0.5566815353
C       -0.0639367602    1.1698305217   -1.3109108900
C        1.1646990878    2.0396512908   -1.3604163149
C        2.2023172227    1.9320201314   -2.2043986398
C        2.4036538445    0.9062041711   -3.2877183229
H        0.1271588735   -1.6144959182   -1.3906856137
H       -0.7253392461   -1.9543402346    0.1252130101
H       -1.5665367117   -1.1298845217   -1.1978154476
H       -0.8562320386    1.6286497909    1.3144977807
H       -2.1549129070    0.7402852212    0.5006047283
H       -1.2123230087   -0.0418176186    1.7815713052
H        1.5899407262    0.8558460185    1.0247670234
H        1.1462309157   -0.8296187663    1.3368133098
H        1.9822483860   -0.3884779496   -0.1632194719
H       -0.1442110133    0.6155574490   -2.2498847221
H       -0.9496232331    1.8152972959   -1.2721153318
H        1.2095533204    2.8417327792   -0.6223438221
H        3.0105240263    2.6567396855   -2.0988108902
H        2.5308433026    1.3886825331   -4.2648443451
H        1.5734879839    0.2006458272   -3.3651795870
H        3.3171857101    0.3269031153   -3.1020848263
24   
torsion grid (-120,)
C       -0.4766975070   -1.3443414068   -0.6013222135
C       -0.1963666448    0.0355585456    0.0231119504
C       -1.3593271134    0.4060152656    0.9623722648
C        1.0998031129   -0.0516842299    0.8489076881
C       -0.1062310449    1.1039406325   -1.1351366048
C        1.1969190303    1.8490191059   -1.2615880449
C        2.1335071227    1.6938900604   -2.2101456671
C        2.1224013363    0.7230729906   -3.3608506412
H        0.3335003259   -1.6393322483   -1.2785162675
H       -0.5655948382   -2.1175723340    0.1708974748
H       -1.4097202432   -1.3353934202   -1.1767500904
H       -1.1917596619    1.3844121630    1.4279027921
H       -2.3085383027    0.4536406557    0.4158891070
H       -1.4711585388   -0.3321061571    1.7653237273
H        1.3249849487    0.8941121431    1.3527761065
H        1.0006576290   -0.8234070837    1.6211168815
H        1.9595738661   -0.3059903634    0.2218799292
H       -0.3454312694    0.6152287838   -2.0828182538
H       -0.8977508917    1.8469637954   -0.9793535717
H        1.3915307290    2.5953954539   -0.4911126101
H        3.0167939702    2.3311117850   -2.1512679629
H        2.1882154770    1.2520032678   -4.3199105764
H        1.2265870610    0.0984174624   -3.3804400760
H        2.9927820826    0.0566008387   -3.3093649270
24   
torsion grid (-105,)
C        0.1212830572    0.5361881442    1.2032634869
C        0.6824204974   -0.6340048773    0.3734035304
C        1.5159015401   -1.5330738717    1.3075135287
C       -0.4783563564   -1.4589969806   -0.2057708003
C        1.6300665221   -0.0548511542   -0.7400106999
C        1.0765660495   -0.0433216498   -2.1411635034
C        0.6705743018    1.0226942347   -2.8484059330
C        0.6511737713    2.4618820635   -2.4065405149
H       -0.4397065457    1.2341916504    0.5704232048
H       -0.5570211210    0.1769296436    1.9860939483
H        0.9293080536    1.0956307646    1.6880559129
H        1.9051089538   -2.4059475170    0.7704692099
H        2.3712974508   -0.9859156141    1.7211178824
H        0.9134233677   -1.8969978943    2.1481219616
H       -0.1146011173   -2.3132274755   -0.7877870458
H       -1.1006896560   -1.8533284602    0.6057839753
H       -1.1147207505   -0.8548445836   -0.8592857438
H        1.9558934849    0.9451160421   -0.4427485747
H        2.5395016674   -0.6690541650   -0.7632579050
H        1.0016328881   -1.0173240233   -2.6238947448
H        0.3058271922    0.8441801107   -3.8608138816
H        1.2703239447    3.0821715935   -3.0668143872
H        1.0092886161    2.5954082283   -1.3833721242
H       -0.3673718852    2.8668177879   -2.4592526857
24   
torsion grid (-90,)
C        0.0336029225    0.4811649467    1.0939738083
C        0.7155498813   -0.7201043959    0.4137541575
C        1.6056371200   -1.4258028453    1.4554865919
C       -0.3435898063   -1.7104491993   -0.0946399124
C        1.6355260510   -0.1973862057   -0.7374919808
C        0.9778842819   -0.0760571823   -2.0875419310
C        0.5999362785    1.0501314146   -2.7124789845
C        0.7340779742    2.4638042122   -2.2121190607
H       -0.5580113386    1.0582659484    0.3739283541
H       -0.6410505687    0.1515910943    1.8927570666
H        0.7768536597    1.1536597456    1.5369311039
H        2.0710425432   -2.3244406942    1.0341414061
H        2.4085367384   -0.7638080467    1.8010880280
H        1.0222464943   -1.7292537629    2.3326225432
H        0.1189064100   -2.5595807380   -0.6115957573
H       -0.9232137433   -2.1096942314    0.7455279696
H       -1.0412570266   -1.2322695311   -0.7887860122
H        2.0845311953    0.7500280925   -0.4263308747
H        2.4683521655   -0.9051055788   -0.8481774768
H        0.7897889101   -1.0175614175   -2.6023952058
H        0.1402698108    0.9487518439   -3.6965449195
H        1.3321810134    3.0680245808   -2.9058169751
H        1.1988762677    2.5209413659   -1.2255585071
H       -0.2502254168    2.9443221778   -2.1452401975
24   
torsion grid (-75,)
C       -0.0013463337    0.5591686262    0.8886538106
C        0.7966639296   -0.6665657023    0.4105490534
C        1.6965684484   -1.1558460478    1.5605107567
C       -0.1671291212   -1.7948517992    0.0072987122
C        1.7140297663   -0.2571920011   -0.7796964539
C        1.0039473991   -0.0563590760   -2.0933418064
C        0.6932861909    1.1088336767   -2.6828807376
C        0.9763470159    2.4968871193   -2.1735308872
H       -0.6128827988    0.9719490562    0.0793640486
H       -0.6709073090    0.2922517961    1.7145146110
H        0.6692007059    1.3504776579    1.2431822862
H        2.2499057619   -2.0578929285    1.2743468450
H        2.4281005132   -0.3896673992    1.8434331805
H        1.1026747868   -1.3949265163    2.4502743183
H        0.3775504623   -2.6572153873   -0.3957846278
H       -0.7393242351   -2.1389658866    0.8764123197
H       -0.8813518162   -1.4610430850   -0.7516615693
H        2.2739819238    0.6386398433   -0.4932167902
H        2.4584531514   -1.0532269056   -0.9181974740
H        0.7091244945   -0.9685644867   -2.6111992970
H        0.1740428213    1.0641102158   -3.6411471639
H        1.5651993145    3.0666919634   -2.9031742101
H        1.5179390094    2.4972742676   -1.2254111132
H        0.0410804179    3.0507497238   -2.0223791209
24   
torsion grid (-60,)
C       -0.1233111474    0.5359788486    0.5523635383
C        0.7472767477   -0.6776652975    0.1846940169
C        1.6687324297   -1.0262715247    1.3664832606
C       -0.1609452503   -1.8822774280   -0.1231949803
C        1.6405346313   -0.3481689984   -1.0466395354
C        0.8939778477    0.0236610740   -2.3014416079
C        0.7182273984    1.2527620110   -2.8112502015
C        1.2149093134    2.5580090661   -2.2499651321
H       -0.7858312882    0.8139559464   -0.2725475975
H       -0.7438068549    0.3150510192    1.4284938007
H        0.4961040947    1.4078691319    0.7935778450
H        2.3001567299   -1.8920775255    1.1347682579
H        2.3286267217   -0.1868087864    1.6150003329
H        1.0844635735   -1.2682624690    2.2617558336
H        0.4290621731   -2.7576950430   -0.4199651683
H       -0.7492036557   -2.1594984573    0.7591059841
H       -0.8636965260   -1.6580313612   -0.9321049662
H        2.3290608961    0.4547052626   -0.7621078427
H        2.2638837597   -1.2278008255   -1.2559663760
H        0.4443653606   -0.8062464414   -2.8466125247
H        0.1433481930    1.3349698725   -3.7345567188
H        1.8004721002    3.1060920009   -2.9983559566
H        1.8360165157    2.4280969813   -1.3613163060
H        0.3715230616    3.2038564329   -1.9739217727
24   
torsion grid (-45,)
C       -0.0909033142    0.5044729199    0.5929027651
C        0.9927845474   -0.5499893832    0.3108514638
C        2.0013167464   -0.5889125190    1.4707869373
C        0.3197319038   -1.9303088205    0.1777530029
C        1.7657930857   -0.2170977857   -1.0019012561
C        0.9087515030    0.1882107370   -2.1718297285
C        0.7819216855    1.4135341958   -2.7041857251
C        1.4508327092    2.6859957279   -2.2580497905
H       -0.8587397541    0.5071482410   -0.1853685145
H       -0.5781319294    0.3047025579    1.5543225870
H        0.3373357664    1.5128849943    0.6374922207
H        2.8073724703   -1.3045367326    1.2697086249
H        2.4581181805    0.3947384254    1.6304846744
H        1.5141067225   -0.8879257815    2.4060689929
H        1.0631215496   -2.7184725855    0.0100727286
H       -0.2372816555   -2.1834471775    1.0872770308
H       -0.3876155006   -1.9511031904   -0.6584407161
H        2.4826214740    0.5802068047   -0.7795711438
H        2.3634502096   -1.0958825254   -1.2778118765
H        0.3238114717   -0.6105041015   -2.6296014917
H        0.1093595889    1.5208822615   -3.5561834411
H        2.0187291523    3.1371241244   -3.0812524167
H        2.1335247207    2.5366701753   -1.4188983456
H        0.7007489260    3.4257156768   -1.9503273212
24   
torsion grid (-30,)
C       -0.3712668328    0.3983304050    0.6952701893
C        0.7670912892   -0.6151226531    0.4856000370
C        1.8053161124   -0.4802531445    1.6108269874
C        0.1619842357   -2.0335772093    0.5200457271
C        1.4859549409   -0.4015363867   -0.8898854664
C        0.6292287281    0.1554178580   -1.9957076513
C        0.6751883969    1.3905942590   -2.5180024404
C        1.5785389488    2.5271163507   -2.1199437219
H       -1.1675935000    0.2673816855   -0.0422996359
H       -0.8075939301    0.2758011819    1.6935067202
H       -0.0113964170    1.4300027257    0.6096176744
H        2.6479785026   -1.1640020862    1.4536899359
H        2.2048723155    0.5394992386    1.6581902865
H        1.3625035360   -0.7131751486    2.5862586190
H        0.9431164730   -2.7991033494    0.4458222249
H       -0.3896016313   -2.2057609279    1.4516728323
H       -0.5361584098   -2.1852804613   -0.3113804600
H        2.3368250979    0.2676125306   -0.7285746077
H        1.9141140307   -1.3602231361   -1.2081303093
H       -0.1146597075   -0.5272431624   -2.4096096446
H       -0.0275217537    1.6200663134   -3.3199960465
H        2.1715610413    2.8727149636   -2.9759145963
H        2.2691217978    2.2616314453   -1.3166162044
H        0.9861428797    3.3863576061   -1.7804607178
24   
torsion grid (-15,)
C       -0.9713974586    0.2072194489    0.7722839861
C        0.2299031726   -0.7446851012    0.6326008906
C        1.2262647976   -0.4816752543    1.7744258675
C       -0.2888816786   -2.1929469992    0.7374094922
C        0.9749453333   -0.5671896792   -0.7440545726
C        0.2349709654    0.1984875425   -1.8095238479
C        0.4673167468    1.4567190868   -2.2137731652
C        1.5034880585    2.4140177189   -1.6881895511
H       -1.7357268011    0.0076011590    0.0155233573
H       -1.4336395343    0.0855872017    1.7589305463
H       -0.6705356726    1.2547442733    0.6665415887
H        2.1019190426   -1.1363664154    1.6927480813
H        1.5796674366    0.5559430561    1.7561327946
H        0.7633744946   -0.6613580273    2.7519029722
H        0.5373220845   -2.9127032703    0.7041438373
H       -0.8355304250   -2.3519543736    1.6743730409
H       -0.9698648961   -2.4266365564   -0.0895479887
H        1.9326877286   -0.0742696286   -0.5551695994
H        1.2254698460   -1.5607405558   -1.1338864837
H       -0.5816125633   -0.3345428540   -2.2985523513
H       -0.1685553327    1.8535079916   -3.0061028933
H        2.1682536060    2.7519821760   -2.4929371295
H        2.1217352799    1.9803699772   -0.8990673449
H        1.0231378397    3.3122158483   -1.2794260973
24   
torsion grid (0,)
C       -1.1616843657    0.0191253752    0.7862321407
C        0.1419420932   -0.7904322342    0.6599920542
C        1.1120916008   -0.3220447699    1.7613400910
C       -0.1744591797   -2.2827775336    0.8666368478
C        0.8414176894   -0.5953837910   -0.7413787206
C        0.1513755003    0.3242684362   -1.7146294726
C        0.5361751645    1.5564269109   -2.0816950111
C        1.7331210340    2.3280260141   -1.5931112362
H       -1.9104832073   -0.2979558635    0.0527479805
H       -1.5945361902   -0.1212451207    1.7835449971
H       -0.9857645775    1.0888116424    0.6388466745
H        2.0500679060   -0.8887075628    1.7297251559
H        1.3563277187    0.7399026269    1.6409995308
H        0.6735549757   -0.4539349473    2.7575390865
H        0.7361275042   -2.8908378915    0.8117781234
H       -0.6367864376   -2.4583719790    1.8451353817
H       -0.8670263662   -2.6472165246    0.0987872495
H        1.8670889496   -0.2559749238   -0.5773171713
H        0.9300788269   -1.5778525852   -1.2208268335
H       -0.7620622885   -0.0639650342   -2.1657505363
H       -0.0835372124    2.0781381336   -2.8120945620
H        2.3962544148    2.5910238443   -2.4267898608
H        2.3206919616    1.7774312734   -0.8550988837
H        1.4187283097    3.2728402018   -1.1317711768
24   
torsion grid (15,)
C       -1.1602078603   -0.0516362059    0.7287292710
C        0.2132582175   -0.7280797484    0.5677910770
C        1.1737092365   -0.0846408238    1.5892275698
C        0.0923132228   -2.2317886579    0.8616115696
C        0.8181719301   -0.5240140547   -0.8696086001
C        0.1786438766    0.5459947653   -1.7149172401
C        0.6973809609    1.7369941905   -2.0524021930
C        2.0339015136    2.3019213377   -1.6506019743
H       -1.9008854630   -0.4604550111    0.0316135908
H       -1.5407478105   -0.2125378096    1.7439840383
H       -1.0965821269    1.0262707787    0.5554904671
H        2.1584888841   -0.5658415417    1.5646071038
H        1.3137833293    0.9808758622    1.3735850459
H        0.7829775662   -0.1710190505    2.6099648328
H        1.0589132444   -2.7352903337    0.7419771913
H       -0.2526090575   -2.4082682424    1.8871670475
H       -0.6208680535   -2.7099847387    0.1800239950
H        1.8946121176   -0.3577400391   -0.7803762184
H        0.7090755739   -1.4686077018   -1.4188223279
H       -0.8179497518    0.3142505436   -2.0895617966
H        0.0928476621    2.3855968977   -2.6878001633
H        2.6453628722    2.5255258414   -2.5338457334
H        2.6029631575    1.6269461992   -1.0075763900
H        1.9048882055    3.2482497903   -1.1101696193
24   
torsion grid (30,)
C       -1.5460108860   -0.4099235340    0.7957833305
C       -0.0949860110   -0.9101117784    0.6834712059
C        0.7666986579   -0.0839391382    1.6599465181
C       -0.0159805616   -2.3967233484    1.0628716762
C        0.4774182771   -0.7202174411   -0.7596481944
C       -0.0797380639    0.4451413550   -1.5343861733
C        0.5337431221    1.6052853403   -1.8162195709
C        1.9224259205    2.0277519316   -1.4164095831
H       -2.2081200385   -0.9236282381    0.0880360428
H       -1.9330050842   -0.5967441519    1.8040866398
H       -1.6130201040    0.6641385911    0.6012919066
H        1.8026497346   -0.4426524386    1.6747976247
H        0.7790828421    0.9724740714    1.3696742062
H        0.3752447020   -0.1464496233    2.6820559672
H        1.0060684115   -2.7777650189    0.9508898469
H       -0.3197269431   -2.5553251965    2.1041299299
H       -0.6707720223   -3.0022012761    0.4253754837
H        1.5686162648   -0.6745320461   -0.7013838092
H        0.2446010930   -1.6274410736   -1.3343804459
H       -1.0978172277    0.3191170008   -1.9009867446
H       -0.0231955805    2.3388139731   -2.4007757753
H        2.5302352828    2.2563499656   -2.3008995280
H        2.4450251906    1.2662181491   -0.8337445986
H        1.8882474000    2.9439156291   -0.8133288592
24   
torsion grid (45,)
C       -1.6393729839   -0.6258623576    0.8029227359
C       -0.1392091523   -0.9417076353    0.6697707499
C        0.6525826158    0.0257835853    1.5692723534
C        0.1294773183   -2.3891860238    1.1128229111
C        0.3386312097   -0.7777831436   -0.8039177216
C       -0.1473849101    0.4657310292   -1.5020582474
C        0.5521710744    1.5815094259   -1.7616618517
C        1.9893664952    1.8631523292   -1.4132977271
H       -2.2403861051   -1.2449859820    0.1255326729
H       -1.9825670393   -0.8227599675    1.8250345322
H       -1.8481991414    0.4238540331    0.5764004326
H        1.7244687979   -0.2038838868    1.5495025589
H        0.5229562303    1.0619724497    1.2402366819
H        0.3149578260   -0.0426726590    2.6099148276
H        1.1873012135   -2.6500562311    0.9895707430
H       -0.1288500497   -2.5319712331    2.1684587272
H       -0.4617629115   -3.0998031244    0.5235406375
H        1.4314437515   -0.8387661639   -0.8224349627
H       -0.0255506717   -1.6446729196   -1.3724941754
H       -1.1876384368    0.4457294989   -1.8254318902
H        0.0352021321    2.3884712630   -2.2826634748
H        2.5676256716    2.1059793243   -2.3135588234
H        2.4758493839    1.0231346073   -0.9133781010
H        2.0619643298    2.7331456905   -0.7483421155
24   
torsion grid (60,)
C       -1.6612974052   -0.8015498821    0.8319279022
C       -0.1369975723   -0.9069962434    0.6462379297
C        0.5652455259    0.1679275462    1.4926303636
C        0.3301661941   -2.3006022495    1.1041461425
C        0.2386939596   -0.7426033814   -0.8550861063
C       -0.1664071156    0.5684794824   -1.4774060296
C        0.6217106535    1.6212933239   -1.7455985284
C        2.0981827139    1.7516974218   -1.4837572536
H       -2.1869431636   -1.5380168315    0.2124755388
H       -1.9377627630   -0.9851789269    1.8765054735
H       -2.0309161302    0.1929592814    0.5618715875
H        1.6548200440    0.0967959259    1.3947074171
H        0.2660621583    1.1743993912    1.1850623968
H        0.3168984233    0.0481903279    2.5534902552
H        1.4138624684   -2.4144596934    0.9835075017
H        0.0925762275   -2.4665300283    2.1612568804
H       -0.1569915764   -3.0926506104    0.5233521509
H        1.3187512433   -0.8944606743   -0.9544975049
H       -0.2395373285   -1.5584565446   -1.4134705904
H       -1.2226928916    0.6650476907   -1.7283846178
H        0.1531083617    2.4959170765   -2.1985810985
H        2.6347264263    2.0169028523   -2.4030985312
H        2.5400410626    0.8364031996   -1.0846070802
H        2.2916042584    2.5557178414   -0.7621437947
24   
torsion grid (75,)
C       -1.6466934144   -1.1093979608    0.5742852979
C       -0.1226293066   -0.9247178673    0.4559624705
C        0.3509056014    0.2068177621    1.3814796399
C        0.5621024608   -2.2404521129    0.8735982227
C        0.2656907046   -0.6366173647   -1.0258526747
C       -0.0537733552    0.7516034795   -1.5143602150
C        0.8108047804    1.7450980754   -1.7721708391
C        2.3090010222    1.7232164336   -1.6283260559
H       -1.9907620090   -1.9415272668   -0.0505161668
H       -1.9351712234   -1.3252261885    1.6095159940
H       -2.1871592673   -0.2083739041    0.2632374247
H        1.4287764009    0.3763689920    1.2763452635
H       -0.1546895282    1.1499255465    1.1552645999
H        0.1511523151   -0.0456553306    2.4292667169
H        1.6537482484   -2.1426545190    0.8519876169
H        0.2720288854   -2.5292962224    1.8904712517
H        0.2855610858   -3.0612044021    0.2011714754
H        1.3375590933   -0.8289265990   -1.1385718446
H       -0.2458321419   -1.3712013915   -1.6615948435
H       -1.1120801057    0.9677698033   -1.6657741445
H        0.3949917168    2.6921894051   -2.1184257600
H        2.7953769671    1.9812910055   -2.5772703091
H        2.6916677132    0.7525628371   -1.3059060505
H        2.6346503659    2.4708668860   -0.8938324895
24   
torsion grid (90,)
C       -1.7020268425   -1.1269313315    0.5563651592
C       -0.2210820556   -0.7592150515    0.3474661648
C        0.1752114593    0.4075739826    1.2648718385
C        0.6339111280   -1.9909793776    0.7064255528
C        0.0296134639   -0.4267602249   -1.1619399820
C       -0.1573733500    1.0169992976   -1.5462537696
C        0.7951029417    1.9030631921   -1.8754015115
C        2.2828936001    1.6801211059   -1.9314279929
H       -1.9717397779   -2.0121731558   -0.0302777833
H       -1.9097187810   -1.3448721438    1.6104686146
H       -2.3644518841   -0.3077366282    0.2517040594
H        1.2117517697    0.7153882251    1.0882766191
H       -0.4586083524    1.2843923031    1.1036157870
H        0.0848621987    0.1111214119    2.3163777066
H        1.7038460185   -1.7628014704    0.6364768258
H        0.4290810176   -2.3288595244    1.7290709994
H        0.4244299069   -2.8276983144    0.0294242744
H        1.0493225583   -0.7335954394   -1.4131895768
H       -0.6336500469   -1.0554345295   -1.7690372161
H       -1.1872464082    1.3778561352   -1.5456435403
H        0.4715698912    2.9145406520   -2.1242234211
H        2.6740853624    1.9072590208   -2.9310046212
H        2.5705419395    0.6565453358   -1.6818534224
H        2.7976464998    2.3515144628   -1.2323215098
24   
torsion grid (105,)
C       -1.6672126532   -1.1298374832    0.3930431133
C       -0.2493959495   -0.5803658644    0.1476162046
C        0.0321963498    0.5822270669    1.1133492249
C        0.7627098413   -1.7092864870    0.4264770601
C       -0.1076695726   -0.1562405513   -1.3624425701
C       -0.1317469624    1.3239150370   -1.6406998940
C        0.9091131817    2.1064810440   -1.9644299884
C        2.3525334394    1.7036080968   -2.1082196477
H       -1.8620981193   -2.0068095624   -0.2345217931
H       -1.8012178499   -1.4277889503    1.4395702797
H       -2.4298642481   -0.3762739867    0.1617464109
H        1.0248653572    1.0112563898    0.9430953922
H       -0.6975844727    1.3900487300    1.0021248148
H       -0.0119301950    0.2286590988    2.1501184875
H        1.7924280474   -1.3530936220    0.3055088324
H        0.6576008480   -2.0903273591    1.4491607080
H        0.6154018471   -2.5504853434   -0.2611040734
H        0.8247113484   -0.5745132556   -1.7511169404
H       -0.9101376098   -0.6363369869   -1.9348356784
H       -1.1069361048    1.8067072197   -1.5622161325
H        0.7059703245    3.1645067274   -2.1343970917
H        2.7278649782    1.9439377546   -3.1107778336
H        2.5164179846    0.6380587908   -1.9329358130
H        2.9780389324    2.2584288918   -1.3972407311
24   
torsion grid (120,)
C       -1.5839385839   -1.4441753854    0.3527514517
C       -0.2558518459   -0.6879556692    0.1649184884
C       -0.1992524347    0.4702128661    1.1781812457
C        0.9175384951   -1.6439582639    0.4497704720
C       -0.1492005401   -0.1886965412   -1.3286888986
C       -0.0306377263    1.2990454825   -1.5333997580
C        1.0625211252    1.9841083670   -1.9030616356
C        2.4385190982    1.4381554220   -2.1773882492
H       -1.6530425723   -2.2980249164   -0.3314746288
H       -1.6819744982   -1.8254472311    1.3760132235
H       -2.4399730973   -0.7879242910    0.1564787475
H        0.7250750408    1.0469885983    1.0781417734
H       -1.0375110329    1.1631310438    1.0510060474
H       -0.2464418520    0.0762824586    2.2001026276
H        1.8783499247   -1.1300740486    0.3288379099
H        0.8720516570   -2.0322304838    1.4741169015
H        0.9054464180   -2.5002722394   -0.2346910283
H        0.6930954123   -0.6939202657   -1.8077893621
H       -1.0412671387   -0.5278690606   -1.8690167232
H       -0.9399388738    1.8746690604   -1.3587101483
H        0.9632096938    3.0646598286   -2.0136994096
H        2.7572470343    1.6757061438   -3.2000703323
H        2.4990773160    0.3552956552   -2.0477104677
H        3.1745658516    1.8963759595   -1.5045816731
24   
torsion grid (135,)
C       -1.5193526822   -1.5649277340    0.3239741586
C       -0.2861664326   -0.6542314607    0.1849705818
C       -0.4059110479    0.4695788132    1.2331689054
C        0.9993759574   -1.4515015847    0.4643085330
C       -0.2301262590   -0.0882604346   -1.2819211119
C        0.0666771835    1.3822431780   -1.4197478089
C        1.2030634011    1.9463026496   -1.8577823148
C        2.4636544334    1.2484495565   -2.2945492420
H       -1.5026732541   -2.3738672546   -0.4165518317
H       -1.5623354904   -2.0240944846    1.3186279283
H       -2.4433310355   -0.9947343540    0.1759685548
H        0.4512238966    1.1484374688    1.1964654884
H       -1.3127759489    1.0662574891    1.0842569362
H       -0.4561276770    0.0392839767    2.2400808691
H        1.8847378500   -0.8177597431    0.3377876145
H        1.0097460921   -1.8406887303    1.4891669319
H        1.0935772812   -2.3029629428   -0.2198644845
H        0.4801043109   -0.6821434590   -1.8631640644
H       -1.2091470812   -0.2596666553   -1.7476875679
H       -0.7409235614    2.0536130246   -1.1295035817
H        1.2369821262    3.0355852829   -1.9045540253
H        2.7134865015    1.5049098931   -3.3317650418
H        2.3921358355    0.1609330186   -2.2229322260
H        3.3135753346    1.5683658300   -1.6784767801
24   
torsion grid (150,)
C       -1.3442733960   -1.5869548965    0.2110589556
C       -0.1696909692   -0.5937545366    0.1636611730
C       -0.4094285835    0.4760383334    1.2470837303
C        1.1582380236   -1.3112899694    0.4548534115
C       -0.1112432063    0.0445863028   -1.2632098003
C        0.4327430009    1.4479633673   -1.3289340080
C        1.6354557570    1.8356608013   -1.7815535674
C        2.7358869417    0.9614303565   -2.3215180016
H       -1.2601295693   -2.3427006525   -0.5796149410
H       -1.3777494842   -2.1133186506    1.1721042240
H       -2.2997573272   -1.0676855993    0.0774551495
H        0.4221455550    1.1846419951    1.3054652930
H       -1.3255753567    1.0458164198    1.0518572362
H       -0.5180358740    0.0014872863    2.2291146471
H        2.0012634371   -0.6162856045    0.3724747888
H        1.1668765820   -1.7311125499    1.4674695638
H        1.3270023750   -2.1329705350   -0.2511675407
H        0.4413487111   -0.6268837931   -1.9269540100
H       -1.1364015671    0.0792186969   -1.6560487472
H       -0.2353848689    2.2266533476   -0.9630393277
H        1.8592527558    2.9031344725   -1.7622514359
H        2.9954490390    1.2501958354   -3.3477997568
H        2.4714501539   -0.0981307632   -2.3241666808
H        3.6482965864    1.0758859049   -1.7226491892
24   
torsion grid (165,)
C       -1.2611566212   -1.5135210810    0.2148492341
C       -0.2062042395   -0.3934370592    0.1950115710
C       -0.5563837347    0.6309288904    1.2905085007
C        1.1890363690   -0.9776534086    0.4704706367
C       -0.2274515720    0.2742739795   -1.2122500070
C        0.4786034535    1.6022937226   -1.3021263096
C        1.6845482886    1.8500807563   -1.8369543526
C        2.6251965935    0.8611111160   -2.4720700613
H       -1.0814579282   -2.2433712312   -0.5838071656
H       -1.2443595767   -2.0529316062    1.1689414492
H       -2.2694039422   -1.1068286496    0.0764246120
H        0.2081527211    1.4095154775    1.3725344304
H       -1.5167754021    1.1193584988    1.0857540074
H       -0.6357610330    0.1365111777    2.2654424261
H        1.9576669452   -0.2000801335    0.4119586287
H        1.2359617876   -1.4244447183    1.4703357143
H        1.4411391039   -1.7580996302   -0.2571649472
H        0.1766555742   -0.4368695470   -1.9399430417
H       -1.2780915883    0.4335447506   -1.4908415156
H       -0.0592618442    2.4491422046   -0.8771427040
H        2.0410955434    2.8807701345   -1.8159626314
H        2.8628641053    1.1559192682   -3.5018346865
H        2.2211270978   -0.1530482596   -2.4937321263
H        3.5767969312    0.8283007221   -1.9264407708
24   
torsion grid (180,)
C       -1.1567394855   -1.4445851569   -0.1949295991
C       -0.2566563211   -0.2013630026   -0.0807161769
C       -0.8006895652    0.7256514002    1.0203972595
C        1.1718671488   -0.6457874181    0.2788589181
C       -0.2618141665    0.5269258115   -1.4562030601
C        0.5761329142    1.7773093149   -1.5237377277
C        1.7850078316    1.9188305962   -2.0895049457
C        2.6008683787    0.8628991438   -2.7857977006
H       -0.7916412583   -2.1267323353   -0.9715088954
H       -1.1832365551   -1.9982379704    0.7507066678
H       -2.1866758391   -1.1674180194   -0.4491447253
H       -0.1571538803    1.5998235280    1.1622949285
H       -1.8081994791    1.0827309777    0.7755044392
H       -0.8574600874    0.1969483203    1.9788165658
H        1.8476252531    0.2111430836    0.3563804975
H        1.1818415115   -1.1752467627    1.2385543237
H        1.5764123199   -1.3245393545   -0.4810432265
H        0.0591185406   -0.1883500876   -2.2209310206
H       -1.3014361617    0.7876677357   -1.6959321883
H        0.1453706459    2.6600270626   -1.0511384886
H        2.2489133492    2.9048180775   -2.0409087926
H        2.8770305945    1.1877154720   -3.7965403463
H        2.0773268968   -0.0918950193   -2.8670803458
H        3.5386101068    0.6822150813   -2.2448699998
