23   
torsion grid (-165,)
C        3.6031522904    0.6340530502   -4.4187766599
C        2.6089990536   -0.5347868177   -4.3619059177
C        2.6319434053   -1.3371570977   -3.0448827683
H        3.6828842032   -1.5653128225   -2.8092275786
C        2.0480570766   -0.5235295438   -1.8797350150
C        1.8953872050   -2.6771818403   -3.2284784264
C        1.9404527150   -3.6244095918   -2.0225628946
C        1.3076392691   -4.9884569482   -2.3226613752
H        3.3665130568    1.3161283085   -5.2425042073
H        4.6309798986    0.2778895398   -4.5492800031
H        3.5770251573    1.2329998955   -3.5025294212
H        1.5890109826   -0.1564857577   -4.5165781921
H        2.8100166806   -1.2125958937   -5.2009810736
H        2.1664293691   -1.0416016079   -0.9235606191
H        2.5340479456    0.4517625081   -1.7801461266
H        0.9758924632   -0.3469921910   -2.0343866688
H        2.3288196416   -3.1962346333   -4.0943556579
H        0.8462739419   -2.4755866021   -3.4908314478
H        1.4251533397   -3.1711595559   -1.1680825601
H        2.9848791065   -3.7651243587   -1.7126938582
H        1.3443479469   -5.6486483383   -1.4491823267
H        1.8271166381   -5.4935115290   -3.1453882825
H        0.2563757603   -4.8793925916   -2.6141220264
23   
torsion grid (-150,)
C        3.8835497015    0.4679841503   -4.8471263862
C        2.8356046269   -0.6570144030   -4.7588324877
C        2.7997821536   -1.3945239635   -3.4044356535
H        3.8371330995   -1.6323046112   -3.1226085022
C        2.1970417532   -0.5077731290   -2.3040251804
C        2.0390481658   -2.7260927840   -3.5430430856
C        2.0132845038   -3.6032316066   -2.2847464727
C        1.3608120738   -4.9684250264   -2.5330141436
H        3.5645405747    1.2663150045   -5.5251950748
H        4.8535271138    0.0906893574   -5.1868730719
H        4.0447047518    0.9423382795   -3.8731116259
H        1.8346629838   -0.2447621849   -4.9452201348
H        3.0148499717   -1.3810880402   -5.5627241273
H        2.2922189988   -0.9653249789   -1.3148958703
H        2.6861226954    0.4702345287   -2.2564522772
H        1.1295894558   -0.3360118917   -2.4926829527
H        2.4937202041   -3.3028171876   -4.3601659100
H        1.0063016812   -2.5166103241   -3.8588260352
H        1.4751034314   -3.0902488505   -1.4795205261
H        3.0407966289   -3.7481988747   -1.9243870102
H        1.3458894243   -5.5775174558   -1.6225470638
H        1.9013152998   -5.5313800768   -3.3029143167
H        0.3252820649   -4.8537893377   -2.8743956130
23   
torsion grid (-135,)
C        3.7636748295    0.5549339972   -4.6135276978
C        2.7543930302   -0.6143063006   -4.5658702107
C        2.7200335857   -1.3758089675   -3.2252959129
H        3.7591447501   -1.6031644088   -2.9417646494
C        2.0991765056   -0.5125520443   -2.1162191315
C        1.9785198923   -2.7148241592   -3.3896281074
C        1.9641839803   -3.6143075343   -2.1469890452
C        1.3285871965   -4.9829478214   -2.4188673362
H        3.3300128967    1.4550632782   -5.0604066223
H        4.6595082496    0.2929181378   -5.1850450990
H        4.0977392530    0.8385093079   -3.6098176144
H        1.7414669731   -0.2427761149   -4.7693397220
H        2.9783821584   -1.3217429258   -5.3728052822
H        2.1922651853   -0.9823527584   -1.1325981508
H        2.5766478209    0.4705088726   -2.0530169813
H        1.0312874098   -0.3502402355   -2.3108198181
H        2.4421798646   -3.2703298445   -4.2163953550
H        0.9431713818   -2.5145599754   -3.7027140511
H        1.4200677793   -3.1220869586   -1.3328153865
H        2.9935531065   -3.7527994519   -1.7894523865
H        1.3225352566   -5.6082998791   -1.5193881129
H        1.8751280610   -5.5252385332   -3.1992697033
H        0.2912532428   -4.8752967265   -2.7570191365
23   
torsion grid (-120,)
C        3.8427991684    0.4112132468   -4.8222440152
C        2.8733191650   -0.7949968748   -4.7972533848
C        2.8010873209   -1.5281299924   -3.4434973723
H        3.8321695866   -1.7603122225   -3.1361425316
C        2.1698334447   -0.6332975474   -2.3656389540
C        2.0478179957   -2.8616508715   -3.5958483648
C        2.0078834531   -3.7393744176   -2.3382723814
C        1.3583071045   -5.1045633437   -2.5939159944
H        3.3320512487    1.3489373692   -5.0619190529
H        4.6307091170    0.2757976949   -5.5698867393
H        4.3410839686    0.5513562588   -3.8572733468
H        1.8605382185   -0.4720353302   -5.0705487920
H        3.1717583098   -1.5176769217   -5.5656918037
H        2.2308310422   -1.0850318008   -1.3710426938
H        2.6644487578    0.3418510284   -2.3113554293
H        1.1099782411   -0.4554374598   -2.5887773595
H        2.5164796310   -3.4360401714   -4.4068491083
H        1.0188648282   -2.6562264045   -3.9259164833
H        1.4606525714   -3.2263273142   -1.5391749305
H        3.0312055029   -3.8843838092   -1.9662892110
H        1.3344416364   -5.7141924573   -1.6839990058
H        1.9066938767   -5.6669021716   -3.3586822410
H        0.3262305998   -4.9900017295   -2.9456036978
23   
torsion grid (-105,)
C        3.8131082419    0.4385356873   -4.7912208638
C        2.8961748238   -0.8053130483   -4.7890357810
C        2.7963319732   -1.5192787428   -3.4276814667
H        3.8219469375   -1.7509377199   -3.1025312378
C        2.1552817920   -0.6063537468   -2.3710239796
C        2.0397332547   -2.8513815769   -3.5743891279
C        2.0023703184   -3.7254928637   -2.3141863099
C        1.3445976578   -5.0881637599   -2.5622433689
H        3.2439076518    1.3732381497   -4.8066266449
H        4.4524905344    0.4539109026   -5.6802171662
H        4.4751109652    0.4581264007   -3.9190055464
H        1.8875803202   -0.5322112471   -5.1250959335
H        3.2696182131   -1.5304091099   -5.5222586102
H        2.1775283987   -1.0553593661   -1.3735301169
H        2.6721478650    0.3565387157   -2.3068966781
H        1.1065444570   -0.4043412222   -2.6243265643
H        2.5044127981   -3.4292092883   -4.3853377093
H        1.0101728870   -2.6447686233   -3.9015303961
H        1.4621572478   -3.2075857330   -1.5134182060
H        3.0269966297   -3.8745457713   -1.9475017384
H        1.3234024433   -5.6953226177   -1.6506103330
H        1.8855545450   -5.6551128448   -3.3288999795
H        0.3109443183   -4.9695128286   -2.9078756950
23   
torsion grid (-90,)
C        3.9271645280    0.1699577025   -4.9899587301
C        3.0403286665   -1.0885343779   -5.0219256755
C        2.8759956817   -1.7865839626   -3.6588473863
H        3.8849855678   -2.0312534039   -3.2936161798
C        2.2120281354   -0.8562701033   -2.6321809320
C        2.1049390468   -3.1083693959   -3.8244894661
C        2.0317159887   -3.9861203432   -2.5683874667
C        1.3547586145   -5.3363609800   -2.8323422306
H        3.3490284020    1.0772542245   -4.7878502281
H        4.4141943399    0.3263168482   -5.9588355728
H        4.7179699051    0.0881274091   -4.2360046542
H        2.0503216257   -0.8384319550   -5.4257758989
H        3.4762139326   -1.8148594759   -5.7194894809
H        2.1611844066   -1.3132288633   -1.6393952602
H        2.7622002552    0.0843647345   -2.5298363074
H        1.1875444063   -0.6113555770   -2.9410298249
H        2.5779103696   -3.6899912329   -4.6279397413
H        1.0848760776   -2.8874148217   -4.1712887530
H        1.4875339041   -3.4621561105   -1.7742761441
H        3.0475252185   -4.1541794512   -2.1857986881
H        1.3080131775   -5.9461756747   -1.9234419001
H        1.8985355828   -5.9099288745   -3.5920533299
H        0.3291849972   -5.1986926122   -3.1945746341
23   
torsion grid (-75,)
C        3.9194183384    0.3130676821   -4.9401093261
C        3.0472795108   -0.9503613852   -4.9486240065
C        2.8724605910   -1.6219252239   -3.5732002257
H        3.8781009073   -1.8581434365   -3.1930907374
C        2.1949117631   -0.6805388145   -2.5659564461
C        2.1074242009   -2.9494867808   -3.7257506173
C        2.0355091573   -3.8154089235   -2.4613353148
C        1.3651176103   -5.1711172070   -2.7139637077
H        3.3940172582    1.1729734376   -4.5127624795
H        4.2078830624    0.5921147600   -5.9595830631
H        4.8405416419    0.1572097095   -4.3663597655
H        2.0582179741   -0.7126058057   -5.3638459769
H        3.4945263051   -1.6843568177   -5.6313184901
H        2.1095119008   -1.1381751123   -1.5759591914
H        2.7565480423    0.2506836330   -2.4447555459
H        1.1831414264   -0.4194981845   -2.9023572574
H        2.5848338759   -3.5374001428   -4.5218849365
H        1.0871874025   -2.7369875987   -4.0773552572
H        1.4873079648   -3.2869823455   -1.6730034111
H        3.0513008132   -3.9753198857   -2.0752622003
H        1.3208929978   -5.7732720064   -1.7998456672
H        1.9119837055   -5.7486229264   -3.4684573955
H        0.3390597500   -5.0415326293   -3.0777917470
23   
torsion grid (-60,)
C        3.9743629446    0.2512679265   -5.0199065745
C        3.0508903968   -0.9730477969   -5.0019998047
C        2.8720141722   -1.6328457826   -3.6205743007
H        3.8754845194   -1.8499295663   -3.2232791498
C        2.1617759435   -0.6977907121   -2.6300220569
C        2.1311679207   -2.9748373433   -3.7713950154
C        2.0246963560   -3.8161946793   -2.4929273892
C        1.3937488134   -5.1908297462   -2.7449416792
H        3.6123544182    1.0511899941   -4.3666718435
H        4.0599847036    0.6636707511   -6.0310100988
H        4.9834683706   -0.0154211729   -4.6833773854
H        2.0615451036   -0.6915425269   -5.3892146107
H        3.4475205858   -1.7222433758   -5.6992270049
H        2.0916707351   -1.1423512353   -1.6329852431
H        2.6889591047    0.2546197606   -2.5211677897
H        1.1417511705   -0.4784332659   -2.9709830249
H        2.6453327979   -3.5717494500   -4.5372139132
H        1.1215431621   -2.7843895504   -4.1641298445
H        1.4329819894   -3.2842041020   -1.7392998977
H        3.0265739536   -3.9463507943   -2.0618284309
H        1.3220041448   -5.7747799330   -1.8208152095
H        1.9845305705   -5.7720430093   -3.4625675826
H        0.3820651624   -5.0906085057   -3.1553458416
23   
torsion grid (-45,)
C        4.0523588718    0.2093766696   -5.0521472195
C        3.0498919623   -0.9535132577   -5.0263762245
C        2.8703506710   -1.6170196647   -3.6457838377
H        3.8728185675   -1.8102140824   -3.2336706846
C        2.1238916051   -0.6937040425   -2.6706256529
C        2.1612162371   -2.9754263990   -3.7990874589
C        2.0186004284   -3.7932874533   -2.5090138566
C        1.4296892490   -5.1868376298   -2.7586447852
H        3.9149642727    0.8905315122   -4.2064959993
H        3.9694846169    0.7926742755   -5.9750447837
H        5.0804813830   -0.1664619723   -4.9889181773
H        2.0671153630   -0.6007799524   -5.3689119581
H        3.3686529996   -1.7113906411   -5.7528463465
H        2.0964297643   -1.1089759409   -1.6589529011
H        2.5943214447    0.2918439518   -2.6019767590
H        1.0874789679   -0.5454521336   -2.9999517588
H        2.7164275080   -3.5766578889   -4.5320839332
H        1.1647119039   -2.8114442196   -4.2351900541
H        1.3834911183   -3.2594522416   -1.7929375232
H        3.0036701415   -3.8915720365   -2.0329618790
H        1.3304015051   -5.7533427849   -1.8262409063
H        2.0639307501   -5.7689039098   -3.4374314654
H        0.4349701289   -5.1182001168   -3.2145186687
23   
torsion grid (-30,)
C        4.1113560501    0.1772706926   -5.0924313428
C        3.0889892523   -0.9742291576   -5.0691397030
C        2.8924148974   -1.6256676966   -3.6849019521
H        3.8890033038   -1.8095687924   -3.2546013869
C        2.1266599068   -0.6918705261   -2.7350437513
C        2.1913666879   -2.9885970929   -3.8322124259
C        2.0192315214   -3.7839325121   -2.5317640361
C        1.4406130010   -5.1836121474   -2.7708780809
H        4.1548506835    0.7056177546   -4.1347182675
H        3.8923514464    0.9080758146   -5.8770258553
H        5.1218746519   -0.2067727354   -5.2737662135
H        2.1110498037   -0.6093444682   -5.4117334997
H        3.3927785428   -1.7399662139   -5.7928547711
H        2.1016291842   -1.0818918083   -1.7132559668
H        2.5798390849    0.3034227926   -2.6907766577
H        1.0895803827   -0.5692432261   -3.0726069567
H        2.7662307610   -3.6003988183   -4.5409218424
H        1.2054009769   -2.8352928579   -4.2953793058
H        1.3651580624   -3.2391394273   -1.8414302731
H        2.9924606732   -3.8705070463   -2.0297757766
H        1.3194611322   -5.7336027803   -1.8311989647
H        2.0933261279   -5.7757333631   -3.4229282422
H        0.4574900546   -5.1263398870   -3.2527414157
23   
torsion grid (-15,)
C        4.2370116297    0.1063121704   -5.1895653423
C        3.2228766235   -1.0596315348   -5.1779644252
C        2.9808056486   -1.6824559262   -3.7882079618
H        3.9634730358   -1.8745372690   -3.3306207649
C        2.2091143671   -0.7154666485   -2.8771073813
C        2.2596278700   -3.0354082621   -3.9269905155
C        2.0483265865   -3.8044385044   -2.6165161298
C        1.4474095978   -5.1969542072   -2.8420631187
H        4.4327370189    0.4858925339   -4.1814957636
H        3.8976665874    0.9473892712   -5.8016352604
H        5.2044430231   -0.2170773856   -5.5883843968
H        2.2547850949   -0.7180774873   -5.5675664818
H        3.5605472709   -1.8425285046   -5.8669128349
H        2.1509818661   -1.0824537250   -1.8481079813
H        2.6800010192    0.2721964334   -2.8437351576
H        1.1834039096   -0.5811618061   -3.2438200003
H        2.8377198320   -3.6692008911   -4.6134619260
H        1.2857034196   -2.8736854715   -4.4121550880
H        1.3922675211   -3.2351579834   -1.9481447014
H        3.0102730631   -3.9005110524   -2.0949311017
H        1.2989649994   -5.7280067278   -1.8954305634
H        2.1002588132   -5.8125832357   -3.4718283434
H        0.4743481970   -5.1296465829   -3.3426821132
23   
torsion grid (0,)
C        4.2488729654    0.1038335429   -5.1849782705
C        3.2787139554   -1.1020200062   -5.1932640769
C        3.0016755710   -1.7086313207   -3.8037295254
H        3.9741404626   -1.9025655272   -3.3260189420
C        2.2213427992   -0.7241429260   -2.9189395098
C        2.2724432168   -3.0568607652   -3.9428908870
C        2.0506833583   -3.8203398198   -2.6308379016
C        1.4380468670   -5.2081373691   -2.8538622761
H        4.5917309067    0.3398077102   -4.1720095216
H        3.7822946084    1.0117183251   -5.5798103700
H        5.1403464308   -0.0910828930   -5.7891189659
H        2.3199462133   -0.8129029702   -5.6426519078
H        3.6831264752   -1.8900148627   -5.8392888457
H        2.1246277515   -1.0855943162   -1.8908250060
H        2.7112093665    0.2539385812   -2.8754459908
H        1.2100720537   -0.5710143188   -3.3171611261
H        2.8492810837   -3.6966145706   -4.6249689269
H        1.3016663321   -2.8903619618   -4.4325376920
H        1.3978693962   -3.2433211438   -1.9658956582
H        3.0102862429   -3.9233828364   -2.1063357942
H        1.2825257431   -5.7350398797   -1.9060491144
H        2.0870623777   -5.8313490294   -3.4801256862
H        0.4669014354   -5.1337322234   -3.3571763724
23   
torsion grid (15,)
C        3.7993556742    0.2310676866   -5.4654426917
C        2.7745808258   -0.9205999657   -5.3595412947
C        2.8855164655   -1.7543257604   -4.0689294085
H        3.9258556322   -2.1052300997   -3.9932150776
C        2.5786229790   -0.8986803698   -2.8300739427
C        1.9779018179   -2.9944488308   -4.1519819469
C        2.1093731425   -3.9817648964   -2.9851415163
C        1.2739431806   -5.2509007582   -3.1911202271
H        4.6093126185    0.1144590939   -4.7367602271
H        3.3408979831    1.2036263477   -5.2576284962
H        4.2466145361    0.2895910075   -6.4620898075
H        1.7532864367   -0.5278535084   -5.4459082254
H        2.9058752443   -1.6001172732   -6.2105045592
H        2.7581025203   -1.4455847844   -1.8996240033
H        3.1979620908    0.0035751002   -2.8022410244
H        1.5281054651   -0.5805489075   -2.8345870325
H        2.2009904392   -3.5280017360   -5.0863087994
H        0.9307845756   -2.6677594496   -4.2327099409
H        1.8042694486   -3.5002787065   -2.0490063122
H        3.1659639860   -4.2548824729   -2.8604098331
H        1.3761255997   -5.9400772681   -2.3456878719
H        1.5826792940   -5.7853067904   -4.0971628656
H        0.2098875616   -5.0090903344   -3.2973956806
23   
torsion grid (30,)
C        3.7782537668    0.3600177042   -5.2339425126
C        2.7941220168   -0.8223533774   -5.1646045308
C        2.8852118163   -1.6514528380   -3.8699959117
H        3.9238854614   -2.0035436362   -3.7787375977
C        2.5629248242   -0.7964444048   -2.6347883643
C        1.9778866785   -2.8914216106   -3.9661290402
C        2.1040811107   -3.8880463886   -2.8066908896
C        1.2725181608   -5.1570921789   -3.0284734204
H        4.6945490037    0.1462269213   -4.6711977672
H        3.3511975286    1.2668879698   -4.7927260562
H        4.0543333302    0.5980981096   -6.2657935648
H        1.7651016418   -0.4622482568   -5.2959044136
H        2.9869001522   -1.4975941012   -6.0079436373
H        2.7002874165   -1.3552782049   -1.7042887919
H        3.2053523682    0.0880331032   -2.5805975664
H        1.5215813673   -0.4508227162   -2.6672452470
H        2.2053402725   -3.4177664204   -4.9035221598
H        0.9312262381   -2.5640875081   -4.0494051514
H        1.7919302921   -3.4153339238   -1.8684091888
H        3.1603874707   -4.1601184943   -2.6773895465
H        1.3714418958   -5.8534248562   -2.1885376065
H        1.5874798644   -5.6828499317   -3.9374242775
H        0.2085600119   -4.9165890846   -3.1386098639
23   
torsion grid (45,)
C        3.8478897970    0.2730382815   -5.3848614595
C        2.8667832356   -0.9059079997   -5.3166980825
C        2.9165095860   -1.7094266984   -4.0032506374
H        3.9495921852   -2.0675325287   -3.8764698299
C        2.5667141627   -0.8341151188   -2.7902379546
C        2.0033250830   -2.9451426213   -4.1041180327
C        2.1097446778   -3.9375740295   -2.9389973386
C        1.2653596385   -5.1981246049   -3.1608709093
H        4.8411031910   -0.0192945293   -5.0232863954
H        3.5162978221    1.1148825676   -4.7683246283
H        3.9542506054    0.6416273910   -6.4104377625
H        1.8425418003   -0.5439092805   -5.4813253012
H        3.0817341471   -1.5940218543   -6.1444869960
H        2.6436841198   -1.3910031390   -1.8517512001
H        3.2348084159    0.0287426390   -2.7101366423
H        1.5396145381   -0.4553719187   -2.8713697157
H        2.2392546748   -3.4777269259   -5.0358125367
H        0.9595510464   -2.6126044923   -4.2020759772
H        1.7966062106   -3.4575238519   -2.0048033707
H        3.1619694572   -4.2210268043   -2.8013950863
H        1.3521190564   -5.8925132555   -2.3179877846
H        1.5793847727   -5.7305897240   -4.0662437445
H        0.2047280966   -4.9463445720   -3.2775932657
23   
torsion grid (60,)
C        3.8242701604    0.3451570471   -5.3006765642
C        2.8195359275   -0.8082292577   -5.1899380857
C        2.8850785299   -1.6044378922   -3.8718596678
H        3.9260394613   -1.9353727795   -3.7347542284
C        2.4999312366   -0.7380863069   -2.6631539062
C        2.0060170878   -2.8650254789   -3.9752360332
C        2.1037037897   -3.8355139341   -2.7910561547
C        1.3054534201   -5.1245114411   -3.0202358386
H        4.8546305124   -0.0223654447   -5.2256575158
H        3.6785352436    1.0984621009   -4.5204969152
H        3.7272047265    0.8533450735   -6.2664376130
H        1.7996869839   -0.4186320670   -5.3168311651
H        2.9860341643   -1.5003319317   -6.0253885014
H        2.6064318524   -1.2857896113   -1.7222393083
H        3.1267161907    0.1554269360   -2.5879974520
H        1.4558540626   -0.4086914280   -2.7421720320
H        2.2810499217   -3.4066668878   -4.8907411536
H        0.9574110295   -2.5605219557   -4.1077385756
H        1.7451282923   -3.3511639862   -1.8756710938
H        3.1588459627   -4.0844850889   -2.6143412383
H        1.3834989638   -5.8024156305   -2.1631996891
H        1.6663341550   -5.6616049014   -3.9051742797
H        0.2424843874   -4.9068579519   -3.1774065880
23   
torsion grid (75,)
C        3.8757295251    0.3590479300   -5.2341661889
C        2.8087384388   -0.7372915166   -5.1025835075
C        2.8752442371   -1.5490616995   -3.7929251726
H        3.9210204617   -1.8588941046   -3.6431972893
C        2.4512799003   -0.7019922794   -2.5833947743
C        2.0253082364   -2.8272558808   -3.9186961995
C        2.0958763993   -3.7858218756   -2.7230012236
C        1.3374135526   -5.0947051006   -2.9734791147
H        4.8569254477   -0.0729379880   -5.4620797777
H        3.9697120881    0.9627215072   -4.3265697123
H        3.6325780583    1.0420762472   -6.0558196293
H        1.8087987440   -0.2878410484   -5.1778428417
H        2.8978726739   -1.4209369639   -5.9560285981
H        2.6026654464   -1.2362181781   -1.6408676046
H        3.0198284080    0.2307662327   -2.5200064579
H        1.3877796496   -0.4396214882   -2.6524262274
H        2.3453320827   -3.3703069516   -4.8185479200
H        0.9768615125   -2.5438409238   -4.0934564144
H        1.6887160805   -3.3021176617   -1.8278166042
H        3.1482127608   -4.0088512400   -2.5005644608
H        1.3945628280   -5.7635082000   -2.1076827947
H        1.7473214239   -5.6307111913   -3.8374748563
H        0.2773501535   -4.9028812812   -3.1771135581
23   
torsion grid (90,)
C        3.9396945789    0.3182643855   -5.2977084923
C        2.8478242611   -0.7589140810   -5.1578148888
C        2.8977652623   -1.5552311268   -3.8377016404
H        3.9417977528   -1.8602310760   -3.6673431496
C        2.4531272705   -0.6892237818   -2.6490941187
C        2.0525993144   -2.8368522849   -3.9564822198
C        2.0958390167   -3.7688637181   -2.7387532876
C        1.3470959291   -5.0852145056   -2.9789892613
H        4.8400865808   -0.0892104706   -5.7700960758
H        4.2252204461    0.7508985292   -4.3342875236
H        3.6022574557    1.1428184291   -5.9354150726
H        1.8560956300   -0.2924401341   -5.2322374836
H        2.9169546867   -1.4524424371   -6.0043411201
H        2.6121138585   -1.1972540260   -1.6933642326
H        3.0017476690    0.2569589764   -2.6076871842
H        1.3848980920   -0.4500387473   -2.7280292790
H        2.3943665758   -3.3982993906   -4.8368394992
H        1.0082723580   -2.5586559952   -4.1618161237
H        1.6653990483   -3.2664010388   -1.8650032744
H        3.1428546499   -3.9837289244   -2.4852998289
H        1.3836776673   -5.7343232565   -2.0972363173
H        1.7801962162   -5.6391990613   -3.8200217698
H        0.2921300510   -4.9010773255   -3.2138260782
23   
torsion grid (105,)
C        3.8098029929    0.3192065502   -5.0877029769
C        2.7467468172   -0.7969734402   -4.9756018570
C        2.8071270529   -1.6089400904   -3.6659582351
H        3.8547704836   -1.9050134403   -3.5028187930
C        2.3579800877   -0.7580358987   -2.4680691603
C        1.9740983291   -2.8969032432   -3.7964771727
C        2.0341042783   -3.8430103940   -2.5903737981
C        1.2929799928   -5.1619146107   -2.8399886161
H        4.6129533977    0.0384719198   -5.7766717525
H        4.2694191634    0.5490650746   -4.1213931917
H        3.3809548204    1.2517864774   -5.4687430155
H        1.7405584170   -0.3656829004   -5.0591231618
H        2.8478581465   -1.4821141828   -5.8253182438
H        2.5250478045   -1.2716581913   -1.5166648187
H        2.8971472095    0.1935857615   -2.4224305788
H        1.2871991963   -0.5287673531   -2.5420615073
H        2.3162298146   -3.4440574194   -4.6856903407
H        0.9258234498   -2.6268471291   -3.9921101072
H        1.6073128886   -3.3539221988   -1.7072788023
H        3.0846889925   -4.0531727493   -2.3480513816
H        1.3423101629   -5.8213756182   -1.9665793174
H        1.7225797179   -5.7023919012   -3.6915424622
H        0.2346145491   -4.9828493229   -3.0631429496
23   
torsion grid (120,)
C        3.6031958012    0.4659874265   -4.6870481601
C        2.6111983754   -0.7209344304   -4.6367850405
C        2.6908437501   -1.5655052808   -3.3500626254
H        3.7457187012   -1.8405836513   -3.1982132869
C        2.2268652089   -0.7549799028   -2.1299209235
C        1.8873641356   -2.8680738131   -3.5130739283
C        1.9870679159   -3.8507602983   -2.3392186875
C        1.2738072525   -5.1784856303   -2.6210829895
H        4.2863760164    0.3831057663   -5.5380536591
H        4.2267019703    0.5070807819   -3.7874317430
H        3.0942684492    1.4313127858   -4.7673968950
H        1.5814362096   -0.3583591323   -4.7502142646
H        2.7893372445   -1.3806051522   -5.4940910682
H        2.3977149345   -1.2922300657   -1.1922698283
H        2.7541200807    0.2017508471   -2.0578504258
H        1.1533980065   -0.5374386906   -2.2010243456
H        2.2303127904   -3.3776082269   -4.4241402671
H        0.8303149061   -2.6178076194   -3.6859507223
H        1.5615922138   -3.4005061645   -1.4350623553
H        3.0456744428   -4.0431995712   -2.1181011654
H        1.3507744316   -5.8638564728   -1.7699035809
H        1.7041733036   -5.6812895682   -3.4950335685
H        0.2085262536   -5.0178852280   -2.8245011137
23   
torsion grid (135,)
C        3.5388515284    0.5243352796   -4.6270877373
C        2.6034028432   -0.7050396101   -4.5992419649
C        2.6723131712   -1.5280062668   -3.2988878162
H        3.7268709365   -1.7980244517   -3.1369045916
C        2.2014307452   -0.6984160826   -2.0943552402
C        1.8721750734   -2.8341734939   -3.4478629003
C        1.9852811762   -3.8095751164   -2.2691368540
C        1.2688328682   -5.1390051096   -2.5344550707
H        4.0722598481    0.6016064292   -5.5797100974
H        4.3109231390    0.4465113188   -3.8525128543
H        3.0057480475    1.4641942739   -4.4563684224
H        1.5646792808   -0.3950654250   -4.7724246160
H        2.8586308691   -1.3708528792   -5.4326033718
H        2.3446947936   -1.2304657245   -1.1491221557
H        2.7470916408    0.2478262602   -2.0217314496
H        1.1338753052   -0.4604029694   -2.1865386937
H        2.2096114052   -3.3480773891   -4.3586291985
H        0.8129051760   -2.5889523908   -3.6136609648
H        1.5702810239   -3.3538147013   -1.3628651376
H        3.0463426712   -4.0007567867   -2.0590625631
H        1.3555768387   -5.8190152474   -1.6799233904
H        1.6891802203   -5.6473126577   -3.4101004293
H        0.2012954240   -4.9796280171   -2.7266598061
23   
torsion grid (150,)
C        3.4920256765    0.6389118062   -4.4125161488
C        2.6023907682   -0.6178291501   -4.4170211172
C        2.6503084606   -1.4370682618   -3.1138385533
H        3.7021034900   -1.7076024169   -2.9356728291
C        2.1628235221   -0.6093653895   -1.9149208507
C        1.8526141492   -2.7438067049   -3.2758779596
C        1.9614958638   -3.7283490020   -2.1044553885
C        1.2504583670   -5.0576137190   -2.3850098092
H        3.8474051419    0.8781645345   -5.4201534371
H        4.3879873698    0.4764828327   -3.8008214886
H        2.9773787368    1.5170340225   -4.0112239339
H        1.5623628885   -0.3414104202   -4.6360371410
H        2.9186546549   -1.2746788232   -5.2371354627
H        2.2654371032   -1.1559026328   -0.9727089404
H        2.7291353827    0.3218111128   -1.8140502154
H        1.1042813597   -0.3447683412   -2.0349628328
H        2.1953586794   -3.2503512783   -4.1888237882
H        0.7939259406   -2.4987948612   -3.4453430047
H        1.5396072469   -3.2816798504   -1.1968403871
H        3.0217893307   -3.9182942663   -1.8894668522
H        1.3350286918   -5.7448100521   -1.5360291213
H        1.6767509805   -5.5569005650   -3.2629628725
H        0.1834126086   -4.8997884845   -2.5811703599
23   
torsion grid (165,)
C        3.5936219728    0.5452357355   -4.5719670154
C        2.7015220489   -0.7041911426   -4.5760768377
C        2.7022597811   -1.5005041719   -3.2573147499
H        3.7452709112   -1.7790715691   -3.0425949976
C        2.1876314218   -0.6529362370   -2.0840080929
C        1.8965298596   -2.8019838010   -3.4246061580
C        1.9804075725   -3.7824652137   -2.2475877281
C        1.2548537457   -5.1035712299   -2.5294492770
H        3.7603644685    0.9117703703   -5.5905455265
H        4.5788619203    0.3191831343   -4.1458324430
H        3.1605873105    1.3631710964   -3.9881219119
H        1.6699231726   -0.4212743356   -4.8272679121
H        3.0360828477   -1.3741244611   -5.3786087114
H        2.2281806253   -1.2012438014   -1.1382133438
H        2.7797164084    0.2582123045   -1.9553589389
H        1.1451599029   -0.3533613881   -2.2527365126
H        2.2485636846   -3.3159653225   -4.3297468241
H        0.8423836534   -2.5496427476   -3.6110045633
H        1.5554859235   -3.3266479168   -1.3459780926
H        3.0359495439   -3.9852437955   -2.0213872410
H        1.3236228196   -5.7886870229   -1.6773675193
H        1.6821071787   -5.6114585886   -3.4019963488
H        0.1915764860   -4.9330050067   -2.7351313871
23   
torsion grid (180,)
C        3.5534438917    0.6667519996   -4.4215757597
C        2.6376305369   -0.5630467737   -4.3924144074
C        2.6531529745   -1.3554395108   -3.0704873595
H        3.7010265093   -1.6074938003   -2.8460347002
C        2.1046768631   -0.5239315882   -1.9010235314
C        1.8830096572   -2.6783658924   -3.2419854893
C        1.9631232992   -3.6462370051   -2.0542974384
C        1.2879226141   -4.9916864836   -2.3460503616
H        3.4900288853    1.1777149381   -5.3885109381
H        4.6001077711    0.3845293266   -4.2578063663
H        3.2827749621    1.3983693735   -3.6538116462
H        1.6047867224   -0.2542465292   -4.6066292273
H        2.9278513620   -1.2377279185   -5.2080654268
H        2.1607810298   -1.0701595244   -0.9549228096
H        2.6627269791    0.4076070729   -1.7681330218
H        1.0528792719   -0.2621280775   -2.0742856370
H        2.2678471387   -3.1918525356   -4.1338223815
H        0.8275583518   -2.4534076429   -3.4547216955
H        1.4975689878   -3.1973862350   -1.1694718144
H        3.0174025704   -3.8138110790   -1.7955940762
H        1.3504686260   -5.6668230187   -1.4855664582
H        1.7581451720   -5.4937170313   -3.1996715632
H        0.2269946364   -4.8559866099   -2.5868787226
