
  -OEChem-12122420533D

 27 28  0     0  0  0  0  0  0999 V2000
    3.1428   -6.7323    4.0619 C   0  0  0  0  0  0  0  0  0  0  0  0
    1.8975   -1.9104    0.1598 C   0  0  0  0  0  0  0  0  0  0  0  0
    4.2015   -6.7655    3.1458 C   0  0  0  0  0  0  0  0  0  0  0  0
    2.7322   -5.4973    4.5710 C   0  0  0  0  0  0  0  0  0  0  0  0
    0.7521   -1.4361    0.8102 C   0  0  0  0  0  0  0  0  0  0  0  0
    3.0940   -2.0432    0.8659 C   0  0  0  0  0  0  0  0  0  0  0  0
    4.8339   -5.5884    2.7493 C   0  0  0  0  0  0  0  0  0  0  0  0
    3.3573   -4.3101    4.1796 C   0  0  0  0  0  0  0  0  0  0  0  0
    0.8105   -1.0975    2.1637 C   0  0  0  0  0  0  0  0  0  0  0  0
    3.1855   -1.7085    2.2244 C   0  0  0  0  0  0  0  0  0  0  0  0
    4.4236   -4.3417    3.2616 C   0  0  0  0  0  0  0  0  0  0  0  0
    2.0219   -1.2412    2.8330 C   0  0  0  0  0  0  0  0  0  0  0  0
    4.4900   -1.8693    2.9946 C   0  0  0  0  0  0  0  0  0  0  0  0
    5.1145   -3.1827    2.8800 N   0  0  0  0  0  0  0  0  0  0  0  0
    2.0603   -0.9169    4.1588 F   0  0  0  0  0  0  0  0  0  0  0  0
    2.6482   -7.6496    4.3686 H   0  0  0  0  0  0  0  0  0  0  0  0
    1.8551   -2.1789   -0.8920 H   0  0  0  0  0  0  0  0  0  0  0  0
    4.5372   -7.7144    2.7347 H   0  0  0  0  0  0  0  0  0  0  0  0
    1.9098   -5.4494    5.2808 H   0  0  0  0  0  0  0  0  0  0  0  0
   -0.1843   -1.3331    0.2691 H   0  0  0  0  0  0  0  0  0  0  0  0
    3.9765   -2.4263    0.3579 H   0  0  0  0  0  0  0  0  0  0  0  0
    5.6582   -5.6283    2.0388 H   0  0  0  0  0  0  0  0  0  0  0  0
    3.0125   -3.3696    4.5950 H   0  0  0  0  0  0  0  0  0  0  0  0
   -0.0586   -0.7334    2.7032 H   0  0  0  0  0  0  0  0  0  0  0  0
    5.2193   -1.1383    2.6311 H   0  0  0  0  0  0  0  0  0  0  0  0
    4.3277   -1.6383    4.0488 H   0  0  0  0  0  0  0  0  0  0  0  0
    5.6453   -3.3058    2.0266 H   0  0  0  0  0  0  0  0  0  0  0  0
  1  3  1  0  0  0  0
  1  4  2  0  0  0  0
  1 16  1  0  0  0  0
  2  5  1  0  0  0  0
  2  6  2  0  0  0  0
  2 17  1  0  0  0  0
  3  7  2  0  0  0  0
  3 18  1  0  0  0  0
  4  8  1  0  0  0  0
  4 19  1  0  0  0  0
  5  9  2  0  0  0  0
  5 20  1  0  0  0  0
  6 10  1  0  0  0  0
  6 21  1  0  0  0  0
  7 11  1  0  0  0  0
  7 22  1  0  0  0  0
  8 11  2  0  0  0  0
  8 23  1  0  0  0  0
  9 12  1  0  0  0  0
  9 24  1  0  0  0  0
 10 12  2  0  0  0  0
 10 13  1  0  0  0  0
 11 14  1  0  0  0  0
 12 15  1  0  0  0  0
 13 14  1  0  0  0  0
 13 25  1  0  0  0  0
 13 26  1  0  0  0  0
 14 27  1  0  0  0  0
M  END
$$$$
