24
0 1 C10FH12N
C                    -4.200752719168     2.925330060016    -4.777462584856
C                    -4.825878187926     3.908508725417    -4.008179231879
C                    -3.329274224050     2.003464094080    -4.192394608547
C                    -4.579076853215     3.942336108729    -2.630400306709
C                    -3.049214323903     2.019385057226    -2.806361132736
C                    -3.725444848943     3.011429462363    -2.062180861820
C                    -0.693731357332    -0.688035770096    -2.005312742915
C                    -0.179089448699     0.463124887892    -1.128354226189
C                    -1.580216540255     0.042978169644    -3.015248888841
C                    -1.390575837736     1.404933807197    -1.016658469245
N                    -2.203093503293     1.096513898012    -2.214465579760
F                    -3.561279372359     3.047509997569    -0.704032998262
H                    -4.382650580117     2.872897208152    -5.847711539323
H                    -5.499365961024     4.629786778166    -4.460920990843
H                    -2.852915397301     1.259432156828    -4.820295796987
H                    -5.055834706040     4.670621875359    -1.980624890336
H                     0.105901377614    -1.256433574164    -2.487820492433
H                    -1.298536130152    -1.381756824348    -1.411476464270
H                     0.179835403354     0.134531034193    -0.149382244441
H                     0.648191864153     0.971942068883    -1.635194739794
H                    -0.967398092968     0.457402762419    -3.834005664839
H                    -2.341992064553    -0.604717479748    -3.463015540633
H                    -1.965626415362     1.214524792286    -0.105168250215
H                    -1.090292403880     2.457508666170    -1.004509184917
