31
0 1 C14H14N2O
C                    -1.896786265328    -1.225112067199     6.638259142954
C                     0.669884795975    -1.022968997442    -0.466550193768
C                    -2.090049037684    -1.686829364878     5.331715471499
C                    -0.710345659043    -0.552646923769     6.952250552612
C                    -0.258649437829    -0.267009654575     0.257258098648
C                     1.725394741638    -1.637902142698     0.210479690491
C                    -1.120452335117    -1.485624595109     4.347627335686
C                     0.256807594213    -0.328969341972     5.971580599949
C                    -0.119700901074    -0.120882802499     1.636561144145
C                     1.869077699894    -1.520708012281     1.596859412244
C                     0.061940716394    -0.793718666316     4.658765173111
C                     0.936452698706    -0.746255158884     2.318532083023
C                     2.465625609569    -3.188415204103     3.406574621198
C                     2.986420055252    -2.236430767964     2.319679492677
N                     3.179595312281    -3.166763743900     4.588365559004
N                     1.077932671067    -0.568231573631     3.707904799328
O                     1.481933774568    -3.896108648133     3.251320880433
H                    -2.654366102276    -1.390579838316     7.399253437644
H                     0.569589373560    -1.137623516465    -1.542194348027
H                    -2.996994629911    -2.229614457481     5.076707931778
H                    -0.541217373365    -0.187202888945     7.962274811835
H                    -1.084483641514     0.221700173563    -0.253431634113
H                     2.439670663326    -2.243052812202    -0.343516465828
H                    -1.262662482068    -1.888934307417     3.351040822630
H                     1.166814344309     0.215938486801     6.214019424193
H                    -0.824709950826     0.483083155650     2.199859717234
H                     3.545821984324    -2.847921922388     1.604225088048
H                     3.707124135939    -1.527249658625     2.749963187783
H                     2.959038420790    -3.899320838471     5.253892654733
H                     4.127045789829    -2.811625080705     4.601114729201
H                     2.012067732343    -0.673366760854     4.079003330778
