
  -OEChem-12102412493D

 27 28  0     0  0  0  0  0  0999 V2000
    4.1101   -4.6830    0.3537 C   0  0  0  0  0  0  0  0  0  0  0  0
    0.7031    1.3113    5.2381 C   0  0  0  0  0  0  0  0  0  0  0  0
    3.4215   -3.5943   -0.1989 C   0  0  0  0  0  0  0  0  0  0  0  0
    4.3787   -4.6832    1.7239 C   0  0  0  0  0  0  0  0  0  0  0  0
    1.4905    2.2315    5.9400 C   0  0  0  0  0  0  0  0  0  0  0  0
    1.2950    0.1923    4.6486 C   0  0  0  0  0  0  0  0  0  0  0  0
    3.0054   -2.5354    0.6038 C   0  0  0  0  0  0  0  0  0  0  0  0
    3.9744   -3.6204    2.5393 C   0  0  0  0  0  0  0  0  0  0  0  0
    2.8681    2.0284    6.0503 C   0  0  0  0  0  0  0  0  0  0  0  0
    2.6775   -0.0357    4.7411 C   0  0  0  0  0  0  0  0  0  0  0  0
    3.2728   -2.5312    1.9893 C   0  0  0  0  0  0  0  0  0  0  0  0
    3.4269    0.9033    5.4512 C   0  0  0  0  0  0  0  0  0  0  0  0
    3.3185   -1.2551    4.1161 C   0  0  0  0  0  0  0  0  0  0  0  0
    2.7968   -1.4688    2.7688 N   0  0  0  0  0  0  0  0  0  0  0  0
    4.7721    0.7202    5.5708 F   0  0  0  0  0  0  0  0  0  0  0  0
    4.4321   -5.5093   -0.2736 H   0  0  0  0  0  0  0  0  0  0  0  0
   -0.3690    1.4648    5.1528 H   0  0  0  0  0  0  0  0  0  0  0  0
    3.2042   -3.5714   -1.2641 H   0  0  0  0  0  0  0  0  0  0  0  0
    4.9180   -5.5148    2.1711 H   0  0  0  0  0  0  0  0  0  0  0  0
    1.0370    3.1044    6.4014 H   0  0  0  0  0  0  0  0  0  0  0  0
    0.6904   -0.5248    4.1004 H   0  0  0  0  0  0  0  0  0  0  0  0
    2.4608   -1.7013    0.1649 H   0  0  0  0  0  0  0  0  0  0  0  0
    4.2120   -3.6457    3.5974 H   0  0  0  0  0  0  0  0  0  0  0  0
    3.5096    2.7210    6.5866 H   0  0  0  0  0  0  0  0  0  0  0  0
    4.4120   -1.1572    4.1299 H   0  0  0  0  0  0  0  0  0  0  0  0
    3.0695   -2.1326    4.7250 H   0  0  0  0  0  0  0  0  0  0  0  0
    2.7098   -0.6042    2.2458 H   0  0  0  0  0  0  0  0  0  0  0  0
  1  3  1  0  0  0  0
  1  4  2  0  0  0  0
  1 16  1  0  0  0  0
  2  5  1  0  0  0  0
  2  6  2  0  0  0  0
  2 17  1  0  0  0  0
  3  7  2  0  0  0  0
  3 18  1  0  0  0  0
  4  8  1  0  0  0  0
  4 19  1  0  0  0  0
  5  9  2  0  0  0  0
  5 20  1  0  0  0  0
  6 10  1  0  0  0  0
  6 21  1  0  0  0  0
  7 11  1  0  0  0  0
  7 22  1  0  0  0  0
  8 11  2  0  0  0  0
  8 23  1  0  0  0  0
  9 12  1  0  0  0  0
  9 24  1  0  0  0  0
 10 12  2  0  0  0  0
 10 13  1  0  0  0  0
 11 14  1  0  0  0  0
 12 15  1  0  0  0  0
 13 14  1  0  0  0  0
 13 25  1  0  0  0  0
 13 26  1  0  0  0  0
 14 27  1  0  0  0  0
M  END
$$$$
