19
0 1 C9FH7N2
C                     1.651962989739    -1.306448715896    -0.084060085671
C                     0.749982053435    -0.473628965564     0.585402575059
C                     2.690654889882    -1.917803681273     0.621185141162
C                     0.895782646594    -0.240271303806     1.955991093209
C                     5.909341649862    -3.042888618903     3.290713340005
C                     4.896838190115    -3.449616916536     4.198758313762
C                     5.240569380180    -2.301441453029     2.335674059081
C                     2.851937345521    -1.689662373285     1.992747107250
C                     1.946629424467    -0.840182187572     2.641440107513
N                     3.695439712624    -2.999504019995     3.841286158988
N                     3.920340545752    -2.293858507645     2.698138233531
F                     2.105301935769    -0.569189283838     3.951523424163
H                     1.538490562645    -1.495157076963    -1.147437208381
H                    -0.067219486617    -0.004177679450     0.045385925952
H                     3.377526946374    -2.594301186799     0.121009154141
H                     0.218592363430     0.410474665905     2.500695342218
H                     6.969943783155    -3.249617030358     3.333013220884
H                     4.993197539519    -4.052977390120     5.093136084822
H                     5.586760540468    -1.766779722745     1.461898294564
