
  -OEChem-12122420533D

 19 20  0     0  0  0  0  0  0999 V2000
    1.7338   -1.2410   -0.1412 C   0  0  0  0  0  0  0  0  0  0  0  0
    0.7755   -0.4813    0.5363 C   0  0  0  0  0  0  0  0  0  0  0  0
    2.7716   -1.8399    0.5746 C   0  0  0  0  0  0  0  0  0  0  0  0
    0.8621   -0.3089    1.9199 C   0  0  0  0  0  0  0  0  0  0  0  0
    5.9431   -2.8304    3.4121 C   0  0  0  0  0  0  0  0  0  0  0  0
    4.9261   -3.6460    3.9715 C   0  0  0  0  0  0  0  0  0  0  0  0
    5.2690   -1.9659    2.5689 C   0  0  0  0  0  0  0  0  0  0  0  0
    2.8690   -1.6736    1.9597 C   0  0  0  0  0  0  0  0  0  0  0  0
    1.9123   -0.8958    2.6304 C   0  0  0  0  0  0  0  0  0  0  0  0
    3.7166   -3.3186    3.5167 N   0  0  0  0  0  0  0  0  0  0  0  0
    3.9433   -2.2864    2.6590 N   0  0  0  0  0  0  0  0  0  0  0  0
    2.0390   -0.6194    4.3488 Cl  0  0  0  0  0  0  0  0  0  0  0  0
    1.6666   -1.3782   -1.2165 H   0  0  0  0  0  0  0  0  0  0  0  0
   -0.0423   -0.0180   -0.0087 H   0  0  0  0  0  0  0  0  0  0  0  0
    3.5135   -2.4565    0.0752 H   0  0  0  0  0  0  0  0  0  0  0  0
    0.1281    0.2879    2.4519 H   0  0  0  0  0  0  0  0  0  0  0  0
    7.0076   -2.8628    3.6000 H   0  0  0  0  0  0  0  0  0  0  0  0
    5.0244   -4.4585    4.6811 H   0  0  0  0  0  0  0  0  0  0  0  0
    5.6082   -1.1553    1.9387 H   0  0  0  0  0  0  0  0  0  0  0  0
  1  2  1  0  0  0  0
  1  3  2  0  0  0  0
  1 13  1  0  0  0  0
  2  4  2  0  0  0  0
  2 14  1  0  0  0  0
  3  8  1  0  0  0  0
  3 15  1  0  0  0  0
  4  9  1  0  0  0  0
  4 16  1  0  0  0  0
  5  6  1  0  0  0  0
  5  7  2  0  0  0  0
  5 17  1  0  0  0  0
  6 10  2  0  0  0  0
  6 18  1  0  0  0  0
  7 11  1  0  0  0  0
  7 19  1  0  0  0  0
  8  9  2  0  0  0  0
  8 11  1  0  0  0  0
  9 12  1  0  0  0  0
 10 11  1  0  0  0  0
M  END
$$$$
