
  -OEChem-12102412493D

 20 21  0     0  0  0  0  0  0999 V2000
    1.8289   -0.9566   -0.1742 C   0  0  0  0  0  0  0  0  0  0  0  0
    2.9544   -1.4522    0.4884 C   0  0  0  0  0  0  0  0  0  0  0  0
    0.7177   -0.5601    0.5795 C   0  0  0  0  0  0  0  0  0  0  0  0
    2.9852   -1.5533    1.8821 C   0  0  0  0  0  0  0  0  0  0  0  0
    0.7411   -0.6417    1.9701 C   0  0  0  0  0  0  0  0  0  0  0  0
    3.6705   -1.1720    7.0300 C   0  0  0  0  0  0  0  0  0  0  0  0
    4.8500   -1.0496    6.3569 C   0  0  0  0  0  0  0  0  0  0  0  0
    1.8782   -1.1341    2.6392 C   0  0  0  0  0  0  0  0  0  0  0  0
    2.8251   -1.1998    4.9845 C   0  0  0  0  0  0  0  0  0  0  0  0
    2.5300   -1.2591    6.2615 N   0  0  0  0  0  0  0  0  0  0  0  0
    1.8262   -1.2151    4.0386 N   0  0  0  0  0  0  0  0  0  0  0  0
    4.5466   -1.0323    4.6357 S   0  0  0  0  0  0  0  0  0  0  0  0
    1.8138   -0.8853   -1.2579 H   0  0  0  0  0  0  0  0  0  0  0  0
    3.8198   -1.7806   -0.0813 H   0  0  0  0  0  0  0  0  0  0  0  0
   -0.1698   -0.1755    0.0837 H   0  0  0  0  0  0  0  0  0  0  0  0
    3.8539   -1.9887    2.3612 H   0  0  0  0  0  0  0  0  0  0  0  0
   -0.1204   -0.3149    2.5488 H   0  0  0  0  0  0  0  0  0  0  0  0
    3.5785   -1.2095    8.1103 H   0  0  0  0  0  0  0  0  0  0  0  0
    5.8578   -0.9823    6.7438 H   0  0  0  0  0  0  0  0  0  0  0  0
    0.9109   -1.1234    4.4648 H   0  0  0  0  0  0  0  0  0  0  0  0
  1  2  1  0  0  0  0
  1  3  2  0  0  0  0
  1 13  1  0  0  0  0
  2  4  2  0  0  0  0
  2 14  1  0  0  0  0
  3  5  1  0  0  0  0
  3 15  1  0  0  0  0
  4  8  1  0  0  0  0
  4 16  1  0  0  0  0
  5  8  2  0  0  0  0
  5 17  1  0  0  0  0
  6  7  2  0  0  0  0
  6 10  1  0  0  0  0
  6 18  1  0  0  0  0
  7 12  1  0  0  0  0
  7 19  1  0  0  0  0
  8 11  1  0  0  0  0
  9 10  2  0  0  0  0
  9 11  1  0  0  0  0
  9 12  1  0  0  0  0
 11 20  1  0  0  0  0
M  END
$$$$
