24
0 1 C12H11N
C                     1.870216087077    -1.054045384231    -0.126066024484
C                     0.364466506930     1.657964483738     6.946638908757
C                     1.844315206869     0.145921092102     0.592849109142
C                     1.858202499661    -2.263890276144     0.576792581378
C                    -0.159994353640     1.660960013049     5.649574568597
C                     1.355295153883     0.725562848250     7.273373270780
C                     1.805779485201     0.148585774530     1.988361376488
C                     1.801294004535    -2.274018659164     1.970606861932
C                     0.290847172294     0.754349718087     4.688468599043
C                     1.826836203137    -0.173259810292     6.316381315366
C                     1.773578607423    -1.067709078484     2.696417783167
C                     1.301703753185    -0.171196865854     5.009869870803
N                     1.768245353115    -1.125070993811     4.096127780487
H                     1.903696319554    -1.046680634487    -1.211777875720
H                     0.005211263086     2.364769174643     7.689140005132
H                     1.871179612942     1.095676046442     0.064226010513
H                     1.880301675535    -3.207908213965     0.038045957576
H                    -0.943148515539     2.366415085105     5.382741950258
H                     1.774811764952     0.704226433700     8.276097413963
H                     1.827591174972     1.089126388355     2.527830179012
H                     1.770056298073    -3.220154581144     2.507432212619
H                    -0.157418133767     0.745968762885     3.700989035279
H                     2.613291764066    -0.880016123816     6.573906463293
H                     2.153495776545    -1.967227340469     4.501058431385
