
  -OEChem-12122420533D

 19 20  0     0  0  0  0  0  0999 V2000
    1.9041   -1.0464   -0.1593 C   0  0  0  0  0  0  0  0  0  0  0  0
    2.9254   -1.6337    0.5949 C   0  0  0  0  0  0  0  0  0  0  0  0
    0.8164   -0.4673    0.5004 C   0  0  0  0  0  0  0  0  0  0  0  0
    2.8677   -1.6462    1.9889 C   0  0  0  0  0  0  0  0  0  0  0  0
    0.7455   -0.4725    1.8952 C   0  0  0  0  0  0  0  0  0  0  0  0
    1.1469   -0.8309    6.1829 C   0  0  0  0  0  0  0  0  0  0  0  0
    2.3857   -1.5084    6.0481 C   0  0  0  0  0  0  0  0  0  0  0  0
    0.7522   -0.5725    4.8850 C   0  0  0  0  0  0  0  0  0  0  0  0
    1.7734   -1.0633    2.6428 C   0  0  0  0  0  0  0  0  0  0  0  0
    2.7302   -1.6574    4.7719 N   0  0  0  0  0  0  0  0  0  0  0  0
    1.7218   -1.0800    4.0618 N   0  0  0  0  0  0  0  0  0  0  0  0
    1.9547   -1.0398   -1.2445 H   0  0  0  0  0  0  0  0  0  0  0  0
    3.7776   -2.0879    0.0961 H   0  0  0  0  0  0  0  0  0  0  0  0
    0.0139   -0.0065   -0.0694 H   0  0  0  0  0  0  0  0  0  0  0  0
    3.6534   -2.0984    2.5815 H   0  0  0  0  0  0  0  0  0  0  0  0
   -0.1092   -0.0164    2.3827 H   0  0  0  0  0  0  0  0  0  0  0  0
    0.6189   -0.5692    7.0896 H   0  0  0  0  0  0  0  0  0  0  0  0
    3.0372   -1.8915    6.8240 H   0  0  0  0  0  0  0  0  0  0  0  0
   -0.1278   -0.0764    4.5050 H   0  0  0  0  0  0  0  0  0  0  0  0
  1  2  1  0  0  0  0
  1  3  2  0  0  0  0
  1 12  1  0  0  0  0
  2  4  2  0  0  0  0
  2 13  1  0  0  0  0
  3  5  1  0  0  0  0
  3 14  1  0  0  0  0
  4  9  1  0  0  0  0
  4 15  1  0  0  0  0
  5  9  2  0  0  0  0
  5 16  1  0  0  0  0
  6  7  1  0  0  0  0
  6  8  2  0  0  0  0
  6 17  1  0  0  0  0
  7 10  2  0  0  0  0
  7 18  1  0  0  0  0
  8 11  1  0  0  0  0
  8 19  1  0  0  0  0
  9 11  1  0  0  0  0
 10 11  1  0  0  0  0
M  END
$$$$
