31
0 1 C14H14N2O
C                    -0.008342441684     6.414848372307    -1.366735097328
C                    -3.853089207959     0.260712175888    -2.617617364422
C                    -1.251441152314     5.812111221852    -1.581094768045
C                     1.101093873852     5.607211757965    -1.082442631471
C                    -3.554967267213     0.257354694656    -1.251760394341
C                    -2.983733597181     0.886688170009    -3.514638846616
C                    -1.395435584276     4.424098686774    -1.514802410485
C                     0.970931208116     4.218332980960    -1.031499783879
C                    -2.408476068932     0.909349432624    -0.792553492182
C                    -1.811334052002     1.513318073701    -3.076061235377
C                    -0.281225608749     3.612398420086    -1.246274075525
C                    -1.540198826057     1.543069337253    -1.691919848558
C                    -1.250598776279     3.521126384591    -4.547885089919
C                    -0.849417033704     2.118413153139    -4.071133910019
N                    -0.222683141399     4.434748610976    -4.607130278146
N                    -0.367456665093     2.198149913916    -1.223067564587
O                    -2.385585127532     3.777819507189    -4.934176987018
H                     0.096836609038     7.495057801865    -1.416670290967
H                    -4.752781331117    -0.226744968082    -2.983271133342
H                    -2.122947164647     6.423187130918    -1.801147882832
H                     2.075344393648     6.059103764164    -0.913108263020
H                    -4.219257485297    -0.232802263817    -0.544786588983
H                    -3.208089906960     0.885752589992    -4.577581848218
H                    -2.365941889551     3.970954091658    -1.686414214773
H                     1.838874714799     3.591328864311    -0.839942380336
H                    -2.188608864683     0.946484353423     0.272357085541
H                     0.162707842082     2.119420103286    -3.661144425531
H                    -0.835829011793     1.501221807638    -4.975990241825
H                    -0.521702952993     5.391286818100    -4.763727028338
H                     0.540442885475     4.333233069959    -3.947815135483
H                     0.024780982476     1.786907872262    -0.383382253248
