19
0 1 C9FH7N2
C                     1.859463327866    -1.101238529734    -0.136458493390
C                     0.796264289163    -0.444677352278     0.492676958559
C                     2.876820512117    -1.684218674401     0.617194970365
C                     0.754777176854    -0.383296907548     1.886968620459
C                     5.394908729184    -2.793349040841     4.284665100896
C                     5.595226042313    -3.489582046394     3.064939708444
C                     4.293379051440    -1.994642905774     4.054415974243
C                     2.852228546448    -1.629170591720     2.019615397483
C                     1.771298176443    -0.976242824369     2.625241606795
N                     4.695095109536    -3.150884982636     2.147143824355
N                     3.892225715098    -2.233959431014     2.763420254210
F                     1.688945248205    -0.915018005364     3.983257964525
H                     1.901772003670    -1.157333266729    -1.220275382202
H                     0.004795996562     0.014407690952    -0.092209763972
H                     3.704704277348    -2.198569382107     0.144316028829
H                    -0.055110059917     0.107482537953     2.417941149484
H                     5.967535400014    -2.863378310277     5.199251271197
H                     6.352409768951    -4.224468240373     2.820163302081
H                     3.778289368927    -1.291448828019     4.688509223977
