31
0 1 C14H14N2O
C                    -4.340944388443     4.397729019059     6.973742815143
C                    -1.633960238155    -0.565148777705     1.815275316241
C                    -3.180505232494     3.645776447278     6.756771660183
C                    -5.535291902400     3.990600293031     6.369050963448
C                    -1.549581169753     0.761100648726     2.250744508795
C                    -2.667074065444    -1.369150992382     2.303422745423
C                    -3.204761461682     2.507457099823     5.949541274017
C                    -5.567122551926     2.863690784128     5.546406137271
C                    -2.480410206989     1.271458470956     3.154723438327
C                    -3.603819663736    -0.883992117956     3.221532092924
C                    -4.400628423331     2.108752986116     5.322932151114
C                    -3.519488575832     0.463568132016     3.654690739023
C                    -6.040846727054    -1.489104162815     3.103072980260
C                    -4.693141794741    -1.796949300882     3.751785861712
N                    -6.432122753796    -2.331202231187     2.101155504234
N                    -4.486379457735     0.944906219978     4.546369304133
O                    -6.738409591980    -0.534790727813     3.459150160406
H                    -4.315745768728     5.280399532807     7.606652681757
H                    -0.908677430484    -0.966829492055     1.113474091115
H                    -2.247497958981     3.937521516880     7.233020481573
H                    -6.448235067422     4.558946761618     6.529124720129
H                    -0.762687651181     1.410403679186     1.874943952072
H                    -2.733208738779    -2.408157165577     1.984894847708
H                    -2.304732723608     1.914765256856     5.820610781541
H                    -6.495432980812     2.559281609566     5.068344270088
H                    -2.422253991377     2.311106091599     3.457297987250
H                    -4.415606472064    -2.841281849082     3.584093154430
H                    -4.817614191471    -1.646384329500     4.828765505789
H                    -7.233946213602    -2.054066860646     1.547027831502
H                    -5.777443801469    -2.982033774145     1.689618800834
H                    -5.432215066357     0.608781327888     4.365971253110
