20
0 1 C9H8N2S
C                     1.879075878860    -1.031498011135    -0.124346267342
C                     2.921285241089    -1.630396224349     0.588459737641
C                     0.811350284755    -0.465119240380     0.581724550024
C                     2.917795327968    -1.674359901879     1.985694953067
C                     0.791187236001    -0.499741458446     1.974518910298
C                     4.345557649530    -2.595230009223     5.983662800481
C                     3.690081581695    -2.271025484690     7.132968798182
C                     1.843207988224    -1.104103987288     2.688771442353
C                     2.613668125482    -1.606860305889     5.028546180308
N                     3.742839332491    -2.222978390047     4.797231465382
N                     1.747337968987    -1.097278569664     4.094004493972
S                     2.202770578192    -1.436869149143     6.747504507782
H                     1.896139346188    -1.005249546169    -1.210216316106
H                     3.757150961905    -2.074366733460     0.053517739231
H                    -0.010137103860     0.006005065944     0.048277032725
H                     3.726809538760    -2.139027209046     2.532088891368
H                    -0.044051769660    -0.056288087764     2.514433380577
H                     5.295086311820    -3.118511397292     5.944959197343
H                     3.973633019536    -2.461503869442     8.158968007210
H                     0.918118698062    -0.651554869996     4.462713139427
