19
0 1 C9ClH7N2
C                     1.958790721117    -0.939614458455    -0.112845558479
C                     0.797406782761    -0.469131091568     0.508762326481
C                     2.968136733910    -1.523171734371     0.648784389168
C                     0.662927152842    -0.568401423640     1.893684297312
C                     5.145973836629    -3.564258105586     4.019523939301
C                     5.938463377745    -2.759322882694     3.160225849422
C                     3.844614323803    -3.206500994176     3.729653024875
C                     2.842747236031    -1.638057308040     2.041111475381
C                     1.684619753685    -1.138066977552     2.659141318048
N                     5.192656966428    -1.967985746664     2.393297980629
N                     3.905539342751    -2.239612710532     2.761071416492
Cl                    1.486620416659    -1.154680353203     4.403779382573
H                     2.075501040686    -0.859993105936    -1.189778820174
H                     0.000561636941    -0.019219144780    -0.076479352247
H                     3.877063047020    -1.896205540965     0.189783977249
H                    -0.222456955183    -0.189850219652     2.394171821540
H                     5.473934381626    -4.298478155416     4.742536269815
H                     7.017468315303    -2.719495349494     3.073633714300
H                     2.902447479616    -3.561272657100     4.118973800034
