31
0 1 C14H14N2O
C                     5.268448668766     2.165545501472    -2.266150365552
C                    -1.190366000499    -1.531498332489    -1.496688695731
C                     4.150399877707     2.148617164837    -1.423154839090
C                     5.132304924689     1.720891036108    -3.584511770646
C                     0.185512638724    -1.669633068779    -1.290700169269
C                    -1.657488557630    -0.612775441055    -2.438974784710
C                     2.912857956423     1.700312863707    -1.885415178423
C                     3.900775742418     1.255957960271    -4.053025148363
C                     1.080238026294    -0.891650053042    -2.027003679738
C                    -0.775904481738     0.187736220196    -3.177765189940
C                     2.778706474584     1.242649931313    -3.209296515669
C                     0.608717556742     0.042403451442    -2.959158729229
C                    -1.482052945276     2.589117462095    -3.467317412682
C                    -1.331076221106     1.217017693208    -4.142742249543
N                    -0.317439560113     3.299910900311    -3.351239930847
N                     1.515482514328     0.862029030585    -3.713864895793
O                    -2.569048940266     3.006775131832    -3.080791905012
H                     6.228103544448     2.519603224963    -1.900709140659
H                    -1.894338979482    -2.133371871029    -0.928557459391
H                     4.238544676975     2.496468454579    -0.397008772802
H                     5.989680328549     1.724847720571    -4.252639777657
H                     0.564022773269    -2.387491250303    -0.567762272821
H                    -2.726474889980    -0.494068752833    -2.596026722556
H                     2.049763628611     1.700284372806    -1.226423050821
H                     3.808045770789     0.899259081571    -5.077261826856
H                     2.149988622831    -1.001998731187    -1.878444993790
H                    -0.700205792879     1.316224783312    -5.030675414776
H                    -2.329157887328     0.922383247243    -4.467899885733
H                    -0.340627279968     4.126487809502    -2.766501012803
H                     0.567035357962     2.817343290267    -3.481199593622
H                     1.547790365279     0.610251969565    -4.697279971112
