28
0 1 C13H12O2S
C                     2.524964266366     0.043971128345     7.899191363713
C                    -1.303613797160    -1.170751316921     3.789183259699
C                     1.540607382615    -0.944901827807     7.803082659096
C                     2.163426866425     1.356187420745     8.226407885552
C                    -0.400403471067    -0.143908578252     4.086959393721
C                    -2.529086742050    -1.253859365164     4.460823966202
C                     0.201147867344    -0.620072530201     8.029949031013
C                     0.824396593248     1.679219209202     8.456427973725
C                    -0.713238866650     0.803083377827     5.064580560678
C                    -2.853709687002    -0.312653136368     5.441664906606
C                    -0.167482412259     0.691779593026     8.360286243157
C                    -1.936279935334     0.699671297437     5.731017925879
C                    -1.612946701079     1.046579074796     8.535732110965
O                    -1.537414279699     3.094104299682     6.806952164501
O                    -3.776332720315     1.912928159960     7.225199512280
S                    -2.315352341832     1.865988088166     7.043304212548
H                     3.567842519173    -0.205696134886     7.721657669555
H                    -1.055083656377    -1.904865615978     3.027163684163
H                     1.813799165829    -1.965082775738     7.546922772497
H                     2.924795527532     2.128210096596     8.300436131294
H                     0.547767036744    -0.080716865764     3.560425608430
H                    -3.233359605758    -2.044351278185     4.216404526910
H                    -0.564261082934    -1.386866543619     7.936094256180
H                     0.540901973164     2.702427638165     8.685626948203
H                    -0.029280475755     1.608285147280     5.311692056736
H                    -3.805604925030    -0.344535851639     5.963397567608
H                    -1.782420825231     1.789261594286     9.320878318139
H                    -2.249073600001     0.178414832424     8.719126098766
