19
0 1 C9H8N2
C                     1.904090900542    -1.046355444507    -0.159320430587
C                     2.925442928224    -1.633691638386     0.594864104833
C                     0.816354136834    -0.467286559732     0.500389435941
C                     2.867716441549    -1.646150882973     1.988897485920
C                     0.745512696798    -0.472496425790     1.895197029745
C                     1.146875222183    -0.830946859889     6.182921875607
C                     2.385734524842    -1.508390888817     6.048131803878
C                     0.752168042158    -0.572537562679     4.884988769345
C                     1.773421457667    -1.063305308071     2.642834314835
N                     2.730187031070    -1.657416303773     4.771856619072
N                     1.721781313264    -1.079957213115     4.061780919783
H                     1.954744468120    -1.039821629986    -1.244491796096
H                     3.777564983535    -2.087883993795     0.096095766235
H                     0.013901024940    -0.006494877662    -0.069397839313
H                     3.653420200415    -2.098376090895     2.581482646761
H                    -0.109205216153    -0.016354041776     2.382723241924
H                     0.618891919969    -0.569231856145     7.089620553748
H                     3.037183866318    -1.891495773830     6.824047837554
H                    -0.127756623961    -0.076421476136     4.504954503890
