
  -OEChem-12102412493D

 31 32  0     0  0  0  0  0  0999 V2000
   -1.7071   -0.9270    6.6878 C   0  0  0  0  0  0  0  0  0  0  0  0
    2.1011   -1.0227    0.0515 C   0  0  0  0  0  0  0  0  0  0  0  0
   -1.8220   -1.5215    5.4259 C   0  0  0  0  0  0  0  0  0  0  0  0
   -0.4515   -0.4813    7.1152 C   0  0  0  0  0  0  0  0  0  0  0  0
    0.9762   -0.4963    0.6944 C   0  0  0  0  0  0  0  0  0  0  0  0
    3.0766   -1.6634    0.8196 C   0  0  0  0  0  0  0  0  0  0  0  0
   -0.7072   -1.6693    4.5993 C   0  0  0  0  0  0  0  0  0  0  0  0
    0.6667   -0.6090    6.2899 C   0  0  0  0  0  0  0  0  0  0  0  0
    0.8317   -0.6087    2.0766 C   0  0  0  0  0  0  0  0  0  0  0  0
    2.9470   -1.8008    2.2053 C   0  0  0  0  0  0  0  0  0  0  0  0
    0.5527   -1.2020    5.0187 C   0  0  0  0  0  0  0  0  0  0  0  0
    1.8083   -1.2597    2.8543 C   0  0  0  0  0  0  0  0  0  0  0  0
    4.8978   -1.5497    3.7707 C   0  0  0  0  0  0  0  0  0  0  0  0
    4.0139   -2.5286    3.0010 C   0  0  0  0  0  0  0  0  0  0  0  0
    6.1176   -1.2789    3.2181 N   0  0  0  0  0  0  0  0  0  0  0  0
    1.7099   -1.3753    4.2468 N   0  0  0  0  0  0  0  0  0  0  0  0
    4.5350   -1.0304    4.8302 O   0  0  0  0  0  0  0  0  0  0  0  0
   -2.5784   -0.8188    7.3278 H   0  0  0  0  0  0  0  0  0  0  0  0
    2.2152   -0.9399   -1.0255 H   0  0  0  0  0  0  0  0  0  0  0  0
   -2.7868   -1.8895    5.0849 H   0  0  0  0  0  0  0  0  0  0  0  0
   -0.3410   -0.0210    8.0940 H   0  0  0  0  0  0  0  0  0  0  0  0
    0.2102    0.0189    0.1202 H   0  0  0  0  0  0  0  0  0  0  0  0
    3.9487   -2.0920    0.3286 H   0  0  0  0  0  0  0  0  0  0  0  0
   -0.8061   -2.1652    3.6390 H   0  0  0  0  0  0  0  0  0  0  0  0
    1.6378   -0.2490    6.6221 H   0  0  0  0  0  0  0  0  0  0  0  0
   -0.0292   -0.1661    2.5652 H   0  0  0  0  0  0  0  0  0  0  0  0
    3.5471   -3.1850    3.7421 H   0  0  0  0  0  0  0  0  0  0  0  0
    4.6184   -3.1468    2.3315 H   0  0  0  0  0  0  0  0  0  0  0  0
    6.6468   -0.5113    3.6150 H   0  0  0  0  0  0  0  0  0  0  0  0
    6.3219   -1.5476    2.2654 H   0  0  0  0  0  0  0  0  0  0  0  0
    2.5904   -1.2447    4.7446 H   0  0  0  0  0  0  0  0  0  0  0  0
  1  3  1  0  0  0  0
  1  4  2  0  0  0  0
  1 18  1  0  0  0  0
  2  5  1  0  0  0  0
  2  6  2  0  0  0  0
  2 19  1  0  0  0  0
  3  7  2  0  0  0  0
  3 20  1  0  0  0  0
  4  8  1  0  0  0  0
  4 21  1  0  0  0  0
  5  9  2  0  0  0  0
  5 22  1  0  0  0  0
  6 10  1  0  0  0  0
  6 23  1  0  0  0  0
  7 11  1  0  0  0  0
  7 24  1  0  0  0  0
  8 11  2  0  0  0  0
  8 25  1  0  0  0  0
  9 12  1  0  0  0  0
  9 26  1  0  0  0  0
 10 12  2  0  0  0  0
 10 14  1  0  0  0  0
 11 16  1  0  0  0  0
 12 16  1  0  0  0  0
 13 14  1  0  0  0  0
 13 15  1  0  0  0  0
 13 17  2  0  0  0  0
 14 27  1  0  0  0  0
 14 28  1  0  0  0  0
 15 29  1  0  0  0  0
 15 30  1  0  0  0  0
 16 31  1  0  0  0  0
M  END
$$$$
