22
0 1 C11H9NO
C                    -1.486965376699     7.109242963313     0.399351255102
C                    -0.746495352420     6.806018542440    -0.749288466156
C                    -1.539204666123     6.193493820256     1.453726443738
C                     1.768942660509     0.921945585939     0.048780132083
C                     0.369915730424     1.021611044051     0.308282603575
C                    -0.066048205779     5.591898835309    -0.853632041315
C                    -0.854310980968     4.978327268308     1.359803193374
C                     2.512674607200     2.044071533945    -0.184945191418
C                    -0.197180752798     2.262770971092     0.325766518072
C                    -0.130534883694     4.676956475827     0.201912449037
C                     1.936392390783     3.376266747889    -0.181261705273
N                     0.534058912773     3.405144927253     0.102311407667
O                     2.559820539512     4.417428381574    -0.391281255013
H                    -2.013519339517     8.056898713993     0.473903661454
H                    -0.697696572132     7.517762700433    -1.568869472703
H                    -2.100314874484     6.426163191800     2.354704557478
H                     2.244175858537    -0.056233603679     0.033165551958
H                    -0.245246575023     0.145360709311     0.476601179328
H                     0.518978166618     5.356660541245    -1.735092527869
H                    -0.866710349153     4.273618801795     2.186972378867
H                     3.578319174881     1.999433420060    -0.383351095294
H                    -1.256712275926     2.416619111351     0.497158089388
