
  -OEChem-12122420533D

 31 32  0     0  0  0  0  0  0999 V2000
   -4.3409    4.3977    6.9737 C   0  0  0  0  0  0  0  0  0  0  0  0
   -1.6340   -0.5651    1.8153 C   0  0  0  0  0  0  0  0  0  0  0  0
   -3.1805    3.6458    6.7568 C   0  0  0  0  0  0  0  0  0  0  0  0
   -5.5353    3.9906    6.3691 C   0  0  0  0  0  0  0  0  0  0  0  0
   -1.5496    0.7611    2.2507 C   0  0  0  0  0  0  0  0  0  0  0  0
   -2.6671   -1.3692    2.3034 C   0  0  0  0  0  0  0  0  0  0  0  0
   -3.2048    2.5075    5.9495 C   0  0  0  0  0  0  0  0  0  0  0  0
   -5.5671    2.8637    5.5464 C   0  0  0  0  0  0  0  0  0  0  0  0
   -2.4804    1.2715    3.1547 C   0  0  0  0  0  0  0  0  0  0  0  0
   -3.6038   -0.8840    3.2215 C   0  0  0  0  0  0  0  0  0  0  0  0
   -4.4006    2.1088    5.3229 C   0  0  0  0  0  0  0  0  0  0  0  0
   -3.5195    0.4636    3.6547 C   0  0  0  0  0  0  0  0  0  0  0  0
   -6.0408   -1.4891    3.1031 C   0  0  0  0  0  0  0  0  0  0  0  0
   -4.6931   -1.7969    3.7518 C   0  0  0  0  0  0  0  0  0  0  0  0
   -6.4321   -2.3312    2.1012 N   0  0  0  0  0  0  0  0  0  0  0  0
   -4.4864    0.9449    4.5464 N   0  0  0  0  0  0  0  0  0  0  0  0
   -6.7384   -0.5348    3.4592 O   0  0  0  0  0  0  0  0  0  0  0  0
   -4.3157    5.2804    7.6067 H   0  0  0  0  0  0  0  0  0  0  0  0
   -0.9087   -0.9668    1.1135 H   0  0  0  0  0  0  0  0  0  0  0  0
   -2.2475    3.9375    7.2330 H   0  0  0  0  0  0  0  0  0  0  0  0
   -6.4482    4.5589    6.5291 H   0  0  0  0  0  0  0  0  0  0  0  0
   -0.7627    1.4104    1.8749 H   0  0  0  0  0  0  0  0  0  0  0  0
   -2.7332   -2.4082    1.9849 H   0  0  0  0  0  0  0  0  0  0  0  0
   -2.3047    1.9148    5.8206 H   0  0  0  0  0  0  0  0  0  0  0  0
   -6.4954    2.5593    5.0683 H   0  0  0  0  0  0  0  0  0  0  0  0
   -2.4223    2.3111    3.4573 H   0  0  0  0  0  0  0  0  0  0  0  0
   -4.4156   -2.8413    3.5841 H   0  0  0  0  0  0  0  0  0  0  0  0
   -4.8176   -1.6464    4.8288 H   0  0  0  0  0  0  0  0  0  0  0  0
   -7.2339   -2.0541    1.5470 H   0  0  0  0  0  0  0  0  0  0  0  0
   -5.7774   -2.9820    1.6896 H   0  0  0  0  0  0  0  0  0  0  0  0
   -5.4322    0.6088    4.3660 H   0  0  0  0  0  0  0  0  0  0  0  0
  1  3  1  0  0  0  0
  1  4  2  0  0  0  0
  1 18  1  0  0  0  0
  2  5  1  0  0  0  0
  2  6  2  0  0  0  0
  2 19  1  0  0  0  0
  3  7  2  0  0  0  0
  3 20  1  0  0  0  0
  4  8  1  0  0  0  0
  4 21  1  0  0  0  0
  5  9  2  0  0  0  0
  5 22  1  0  0  0  0
  6 10  1  0  0  0  0
  6 23  1  0  0  0  0
  7 11  1  0  0  0  0
  7 24  1  0  0  0  0
  8 11  2  0  0  0  0
  8 25  1  0  0  0  0
  9 12  1  0  0  0  0
  9 26  1  0  0  0  0
 10 12  2  0  0  0  0
 10 14  1  0  0  0  0
 11 16  1  0  0  0  0
 12 16  1  0  0  0  0
 13 14  1  0  0  0  0
 13 15  1  0  0  0  0
 13 17  2  0  0  0  0
 14 27  1  0  0  0  0
 14 28  1  0  0  0  0
 15 29  1  0  0  0  0
 15 30  1  0  0  0  0
 16 31  1  0  0  0  0
M  END
$$$$
