18   
torsion grid (-60,)
C        1.9947207486    0.0400184074    0.1351939875
C       -0.2066761447    1.2237098804    1.8063810335
C       -0.7010403268    1.1212479165    3.9417043258
C       -1.5339418301    1.0510208036   -0.3305334894
C       -0.1519091080    1.1536681488    0.3036996909
N        3.1424112746    0.1601350831    0.3258389679
N       -1.2575047511    1.0459471900    2.5602756807
N        0.8750444196    1.6659625905    2.6205149177
N        0.6268708278    0.6334400337    3.6878801691
N        0.6740652486   -0.0167644187   -0.1099977332
O       -1.2441130539    1.4003245473    4.9734414514
H       -2.0658932155    0.1689410840    0.0359816320
H       -2.1317315232    1.9252161478   -0.0662892196
H       -1.4340643095    0.9914187170   -1.4167036298
H        0.3720436209    2.0400091949   -0.0681764348
H        1.7814639890    1.4295957889    2.1982373720
H        1.2097779304    0.9032056750    4.4898744953
H        0.2504721154   -0.9153947958    0.1100043373
18   
torsion grid (-45,)
C        1.9570522267   -0.0266064322    0.1208541211
C       -0.1858648221    1.1854143364    1.8179843604
C       -0.7275644085    1.0258611789    3.9168570427
C       -1.5355310234    1.1078283476   -0.3136813807
C       -0.1458874365    1.1502780544    0.3101143877
N        3.1037105978    0.0664412469    0.3317879781
N       -1.2138019156    0.8946034391    2.5618197404
N        0.8951587312    1.6706736436    2.5777239974
N        0.6905826209    0.8637712781    3.7785492178
N        0.6382611450   -0.0356851922   -0.1412742442
O       -1.3557794575    1.1398894750    4.9406379466
H       -2.0935283206    0.2360906981    0.0378908399
H       -2.1015269452    1.9953901155   -0.0241004447
H       -1.4472423831    1.0716236462   -1.4019240701
H        0.4035724913    2.0269651565   -0.0461822583
H        1.8042154869    1.4312787312    2.1686241390
H        1.1614773598    1.3152393766    4.5662095568
H        0.1829162414   -0.9250740291    0.0517032594
18   
torsion grid (-30,)
C        1.9354523612   -0.0772428968    0.1139725631
C       -0.1601631189    1.1733514773    1.8240610081
C       -0.7104002757    0.9373872949    3.9081499027
C       -1.5288962577    1.1428997419   -0.2962081980
C       -0.1323371502    1.1475751707    0.3133941539
N        3.0815143338   -0.0053386360    0.3363732774
N       -1.1639168562    0.8077859062    2.5639827311
N        0.9279315225    1.6553733100    2.5490907160
N        0.7126688320    1.0549696139    3.8312621632
N        0.6182672953   -0.0536590613   -0.1550523677
O       -1.3573272955    0.8971343349    4.9316716156
H       -2.1038943624    0.2825650464    0.0555402969
H       -2.0703275194    2.0422086406    0.0047432323
H       -1.4526050808    1.1132490325   -1.3855637364
H        0.4340023559    2.0128104811   -0.0432612266
H        1.8448685365    1.4073976781    2.1677465462
H        1.0924056365    1.6290078757    4.5830046149
H        0.1409674855   -0.9325259608    0.0338599965
18   
torsion grid (-15,)
C        1.9066172146   -0.1373354671    0.1324576756
C       -0.1424146687    1.1734646524    1.8273646138
C       -0.6746622558    0.8249056568    3.9051240409
C       -1.5158409743    1.1899078288   -0.2878781708
C       -0.1170072939    1.1515688235    0.3157330696
N        3.0496248821   -0.0950308924    0.3768930432
N       -1.1162173463    0.7253692068    2.5612605853
N        0.9427885326    1.6532647399    2.5410216155
N        0.6945212023    1.2189122963    3.8625446804
N        0.5951361286   -0.0712244321   -0.1584368899
O       -1.3029694451    0.6206340087    4.9232689747
H       -2.1146151011    0.3470580797    0.0661221424
H       -2.0279847699    2.1058345165    0.0151303671
H       -1.4452607414    1.1598709471   -1.3776505527
H        0.4730748855    1.9998762470   -0.0421754872
H        1.8739712776    1.4119546665    2.1948979833
H        0.9836959895    1.8793571003    4.5791640160
H        0.0871658426   -0.9334697907    0.0284065502
18   
torsion grid (0,)
C        1.8692628863   -0.1963545644    0.1215058717
C       -0.1347306981    1.1771003115    1.8008969055
C       -0.6056042381    0.7615875556    3.8870402670
C       -1.5281602304    1.1908325448   -0.2986277602
C       -0.1232171673    1.1329381132    0.2897972002
N        3.0118546205   -0.1692976701    0.3697534108
N       -1.0700314261    0.6713197132    2.5485294071
N        0.9598708968    1.6591201652    2.4956466117
N        0.6633640683    1.3948807532    3.8389910027
N        0.5591212220   -0.1115290238   -0.1731411741
O       -1.1785801133    0.4302093141    4.9048772884
H       -2.1382100916    0.3639081934    0.0732171917
H       -2.0189244358    2.1208569844   -0.0025391722
H       -1.4711941608    1.1457245004   -1.3886748327
H        0.4800829857    1.9633746402   -0.0866658125
H        1.8984210692    1.4030538370    2.1854648122
H        0.9000249813    2.1129444357    4.5142116463
H        0.0363913316   -0.9583561218    0.0428797903
18   
torsion grid (15,)
C        2.5607077274    0.7923755567   -0.3667871132
C        0.3153976877    1.4682898404    1.6353431430
C       -0.2113752225    1.7209947186    3.7281756167
C       -1.0933481593    1.3864359686   -0.4452794450
C        0.3144442797    1.5730647744    0.1214767669
N        3.7036127134    0.9904104863   -0.2139347415
N       -0.6174216331    1.9605196233    2.3932367559
N        1.3284021411    0.8216582338    2.3217059937
N        1.1088318739    1.1820502087    3.6700291114
N        1.2398722119    0.6226726533   -0.5292789082
O       -0.8298468755    1.9153831197    4.7541371540
H       -1.4594763411    0.3736101919   -0.2460816274
H       -1.7782164390    2.0871697537    0.0330796030
H       -1.0813862302    1.5560746087   -1.5242685554
H        0.6722072069    2.5762487519   -0.1326623508
H        2.2901127119    0.9518635989    2.0053445950
H        1.3044418595    0.4375970566    4.3342684494
H        0.9358212161   -0.3469050417   -0.5220317945
18   
torsion grid (30,)
C        2.5505652630    0.7453513457   -0.3652636014
C        0.3029602134    1.4769676588    1.6376804129
C       -0.2666828931    1.6359660798    3.7244379057
C       -1.0811437453    1.4438588769   -0.4656423640
C        0.3223902882    1.5785788751    0.1243860880
N        3.6986200375    0.9290828640   -0.2351650507
N       -0.6728057592    1.8964471324    2.3859170656
N        1.3131917677    0.8288058675    2.3463151312
N        1.1370078828    1.3637762935    3.6628969404
N        1.2251091837    0.5935708965   -0.5073675373
O       -0.9275895629    1.6795032088    4.7387579943
H       -1.4883387880    0.4463982262   -0.2701881259
H       -1.7485054352    2.1698030718   -0.0002745371
H       -1.0438509762    1.6105032154   -1.5444753777
H        0.7235185418    2.5667459569   -0.1259845683
H        2.2633911784    0.9801474753    2.0011494315
H        1.4268979059    0.6971619923    4.3775971355
H        0.9033223851   -0.3697265656   -0.4733655096
18   
torsion grid (45,)
C        2.5251091615    0.6450077470   -0.3603898952
C        0.3105489427    1.4433447336    1.6715151571
C       -0.2553422127    1.4626467105    3.7710254873
C       -1.0621125431    1.5226041290   -0.4418842017
C        0.3397247313    1.5644319891    0.1624838150
N        3.6807521838    0.8025759502   -0.2703251457
N       -0.7181119382    1.7056033295    2.4248514747
N        1.3621122852    0.8609920024    2.4057762767
N        1.1704824690    1.5809174679    3.6623331973
N        1.1919881038    0.5309685869   -0.4657548988
O       -0.9005081254    1.2930667879    4.7764827995
H       -1.5321430509    0.5509300721   -0.2614000111
H       -1.6907481928    2.2821897278    0.0243090252
H       -1.0021880024    1.6992603416   -1.5180627249
H        0.8074656428    2.5268010786   -0.0752845813
H        2.2888392046    1.0797454792    2.0290994605
H        1.6094649962    1.0485761848    4.4174339293
H        0.8401634815   -0.4196664372   -0.3919450551
18   
torsion grid (60,)
C        2.4861741915    0.5496842513   -0.2786848386
C        0.2595987501    1.4212746466    1.6954174884
C       -0.3012191145    1.3334443532    3.8150209525
C       -1.0437386213    1.6184284115   -0.4518883180
C        0.3371141732    1.5713808638    0.1961585307
N        3.6454146928    0.6626303853   -0.1720159582
N       -0.8171280694    1.5039514843    2.4286450667
N        1.3264779363    0.9319548992    2.5056479975
N        1.0233915829    1.8662461317    3.6463543369
N        1.1510802871    0.4933253543   -0.4133771449
O       -0.8682060848    0.9588157333    4.8028767406
H       -1.5762898661    0.6756071334   -0.2975933775
H       -1.6422482706    2.4098084535    0.0019445834
H       -0.9382119064    1.8034082006   -1.5231435987
H        0.8721392897    2.5051819723   -0.0132930109
H        2.2426183428    1.2089352209    2.1338034901
H        1.5845112162    1.5365460382    4.4415817354
H        0.7556757307   -0.4393954231   -0.3284183205
