21   
torsion grid (-165,)
C        0.7312813424   -0.2952189839   -0.2733597511
C        2.8869707924   -2.5433649046   -0.5384788330
C        2.7204190378   -1.3740008074   -1.5238617794
C        3.3260250893   -1.8570820552    0.7758914017
C        2.2453153168   -0.2321004590   -0.5995691812
C       -1.5263812921   -0.4552712060   -1.2900525478
N        3.1261999430   -0.4041546949    0.5476841835
N       -0.0697566554   -0.4549032757   -1.3443145362
S        0.1375927336   -0.1452349189    1.2763423696
H        1.9265471499   -3.0500382712   -0.4014325023
H        3.6072709949   -3.2863907185   -0.8903402839
H        3.6847952826   -1.0853655590   -1.9518014683
H        2.0481063400   -1.6114767536   -2.3525166636
H        2.7322334395   -2.2232179485    1.6218701112
H        4.3821280695   -2.0462750675    0.9979917946
H        2.4144816269    0.7516033293   -1.0590383762
H       -1.8986478208    0.4905587544   -0.8838646222
H       -1.9105567613   -0.6008128264   -2.3020803114
H       -1.8808635494   -1.2616000403   -0.6418734936
H        2.7128601304    0.0353508560    1.3683675024
H        0.3637739732   -0.4933400949   -2.2580358045
21   
torsion grid (-150,)
C        0.7762535686   -0.1815680945   -0.2756243251
C        2.9025309001   -2.5179321706   -0.6533245317
C        2.7657324485   -1.2832472951   -1.5688560858
C        3.1391484834   -1.9202811003    0.7585562044
C        2.2932173901   -0.1808966970   -0.5999302025
C       -1.4981746256   -0.5466282479   -1.1901418860
N        3.1470129356   -0.4547300542    0.5520558294
N       -0.0429520582   -0.5578270641   -1.2741772681
S        0.2046610541    0.3046112001    1.2144228813
H        1.9826284059   -3.1098908900   -0.6683235826
H        3.7173424060   -3.1714635012   -0.9745113742
H        3.7421110065   -0.9810412164   -1.9561373537
H        2.1255856334   -1.4632279369   -2.4375602240
H        2.3416256730   -2.2377985403    1.4442892145
H        4.0961780669   -2.2334387219    1.1875795978
H        2.5101683093    0.8205067418   -0.9930383671
H       -1.8616082129    0.4597476566   -0.9614181530
H       -1.9028952453   -0.8786296817   -2.1487395431
H       -1.8384950268   -1.2149529705   -0.3936791772
H        2.7869559774    0.0319404487    1.3721183110
H        0.3727680931   -0.8255875102   -2.1560327560
21   
torsion grid (-135,)
C        0.6023525652   -0.8124087799   -0.2550364613
C        3.2976572464   -2.5446429228    0.1733342934
C        2.5699474718   -2.2991623379   -1.1712945742
C        3.4462425140   -1.1285905814    0.7901465290
C        1.9553784507   -0.8962214431   -1.0062389653
C       -1.4291224603   -2.0317167278    0.4668015108
N        3.0412989378   -0.2155840227   -0.2975503936
N       -0.1189896009   -1.9431938279   -0.1660071804
S        0.0790504232    0.6379549961    0.3854461051
H        2.7134995694   -3.1930369888    0.8327172272
H        4.2646434899   -3.0282252041    0.0153445952
H        3.2931174830   -2.2388362556   -1.9880224433
H        1.8701127727   -3.0952576656   -1.4447471642
H        2.8019084545   -1.0331807257    1.6774091146
H        4.4731623389   -0.9085011917    1.0964698515
H        1.7863949100   -0.4118358255   -1.9742712078
H       -2.1391054159   -1.3619956786   -0.0275914887
H       -1.7796796474   -3.0635570549    0.3940702478
H       -1.3646678923   -1.7349217421    1.5177889953
H        2.7094064367    0.6768459596    0.0668294617
H        0.2588378771   -2.7841021823   -0.5803946285
21   
torsion grid (-120,)
C        0.5908677543   -0.7694316247   -0.3677214741
C        3.2602331110   -2.5814204983    0.1121741354
C        2.5713532064   -2.2640377834   -1.2419800158
C        3.3271060418   -1.2125762619    0.8374766609
C        1.9769869460   -0.8569817625   -1.0461275295
C       -1.3404849124   -2.0121742276    0.5585188655
N        3.0245201189   -0.2359363627   -0.2252944391
N       -0.0390616210   -1.9247096313   -0.0919781071
S       -0.0519806969    0.7217587720    0.0217020678
H        2.6949005196   -3.3076967913    0.7038338177
H        4.2553227278   -3.0029021749   -0.0482897846
H        3.3192771826   -2.1907204836   -2.0346057045
H        1.8556351152   -3.0244824643   -1.5708440663
H        2.5941344082   -1.1830060360    1.6593848150
H        4.3140664711   -1.0085155647    1.2625936201
H        1.8846280569   -0.3178253665   -1.9931582464
H       -2.0995149080   -1.4936082292   -0.0346420788
H       -1.6063845143   -3.0665353109    0.6607427486
H       -1.3059798757   -1.5400123850    1.5448337831
H        2.6929139271    0.6509477552    0.1516115259
H        0.4129068661   -2.7903037710   -0.3530271693
21   
torsion grid (-105,)
C        0.5730429767   -0.7470967165   -0.4769159268
C        3.2473485339   -2.6107115312    0.0524009460
C        2.5755695731   -2.2324086134   -1.2984461429
C        3.2312620833   -1.2986180365    0.8751975621
C        1.9930757818   -0.8246275397   -1.0689925160
C       -1.2691180319   -1.9758951174    0.6328643576
N        2.9843181438   -0.2600727900   -0.1389808960
N        0.0334645402   -1.8905490763   -0.0153665700
S       -0.1944444320    0.7300517547   -0.3483111242
H        2.7173413858   -3.4111635535    0.5785676733
H        4.2680472280   -2.9628637640   -0.1132414833
H        3.3328637691   -2.1514812244   -2.0809801009
H        1.8417250540   -2.9619983658   -1.6549205249
H        2.4438578949   -1.3409805434    1.6449469604
H        4.1820763022   -1.1086707062    1.3816879912
H        1.9757700599   -0.2335822857   -1.9870398024
H       -2.0556457606   -1.6257045292   -0.0422574427
H       -1.4522788531   -3.0173093525    0.9062838220
H       -1.2919357251   -1.3471315566    1.5278811931
H        2.6415440566    0.6099311583    0.2649011817
H        0.5535613438   -2.7492878132   -0.1340757330
21   
torsion grid (-90,)
C        0.5516576260   -0.7445648973   -0.5702089501
C        3.2468403810   -2.6351391182   -0.0064731913
C        2.5827197591   -2.1966072575   -1.3442477686
C        3.1764846179   -1.3834053463    0.9012930895
C        2.0034949918   -0.7930769287   -1.0702209204
C       -1.2237404052   -1.9311030448    0.6887791906
N        2.9358790151   -0.2874496578   -0.0478357572
N        0.0933871568   -1.8382315711    0.0721811056
S       -0.3399453626    0.6586805831   -0.7130214760
H        2.7437280144   -3.4904304408    0.4575761745
H        4.2822822368   -2.9379574476   -0.1773558054
H        3.3421030045   -2.1008484710   -2.1227874536
H        1.8344087663   -2.9008184440   -1.7193556877
H        2.3724495517   -1.4934276891    1.6468127835
H        4.1097842684   -1.2086929524    1.4450947339
H        2.0473979136   -0.1525753260   -1.9520697220
H       -2.0097623001   -1.7753858726   -0.0566331759
H       -1.3279378963   -2.9226398094    1.1348702405
H       -1.3379553283   -1.1639654935    1.4601759840
H        2.5769196994    0.5553162100    0.3964464292
H        0.6712502139   -2.6678472276    0.0821836011
21   
torsion grid (-75,)
C        0.5273736454   -0.7577601560   -0.6311719316
C        3.2496301172   -2.6575297269   -0.0676330627
C        2.5895625925   -2.1476131378   -1.3807931175
C        3.1833719738   -1.4613810210    0.9135045648
C        2.0070580906   -0.7567277500   -1.0409295667
C       -1.2180050059   -1.8913589468    0.7186817909
N        2.8992625300   -0.3147542620    0.0428869898
N        0.1303686162   -1.7620210888    0.1813075134
S       -0.4808060751    0.4945122381   -1.0725980309
H        2.7431887657   -3.5379558906    0.3436013202
H        4.2842151603   -2.9555003417   -0.2515277384
H        3.3488326200   -2.0200156179   -2.1548620284
H        1.8331797097   -2.8281490727   -1.7806283235
H        2.4086240908   -1.6272237907    1.6797741046
H        4.1302367026   -1.3035053469    1.4395822391
H        2.0876733907   -0.0686411744   -1.8826428172
H       -1.9527509995   -1.9748852123   -0.0887560271
H       -1.2554930795   -2.7841120353    1.3470291325
H       -1.4745589799   -1.0104221554    1.3136401184
H        2.5263025591    0.4894175074    0.5423146987
H        0.7641794994   -2.5345432209    0.3344235961
21   
torsion grid (-60,)
C        0.5026773978   -0.7910111611   -0.6746161885
C        3.1939330539   -2.6938989055   -0.1254468470
C        2.6152167082   -2.0699051585   -1.4207682366
C        3.2598760207   -1.5317386608    0.9011035827
C        2.0045775832   -0.7183855234   -0.9896083663
C       -1.2370078547   -1.8668102030    0.7301033163
N        2.8664850493   -0.3383471518    0.1370678000
N        0.1356728450   -1.6707120819    0.2832921262
S       -0.5928888748    0.1817602405   -1.4674513239
H        2.5659866956   -3.5119535964    0.2436701953
H        4.1817082067   -3.1241840012   -0.3054440729
H        3.4199801236   -1.8666160889   -2.1309502095
H        1.8859514353   -2.7124924914   -1.9192518836
H        2.6047062639   -1.7326200428    1.7657233747
H        4.2696628669   -1.3972676681    1.3032664487
H        2.0979806268    0.0231051893   -1.7837995161
H       -1.8693180835   -2.1973171284   -0.0997453646
H       -1.2392038916   -2.6221689178    1.5192387962
H       -1.6527999273   -0.9302404664    1.1138126859
H        2.4683249727    0.4004096883    0.7100397126
H        0.8499247064   -2.2397760732    0.7149673948
21   
torsion grid (-45,)
C        0.4847293595   -0.8475571478   -0.7147501980
C        3.1048996692   -2.7184712175   -0.1658980706
C        2.6629109097   -1.9824108534   -1.4452518431
C        3.3697590081   -1.5896826850    0.8602139995
C        1.9967003721   -0.6880552631   -0.9332529712
C       -1.2546253055   -1.8573249851    0.7381376993
N        2.7929272483   -0.3698749639    0.2560492574
N        0.1248945848   -1.5844610452    0.3580947790
S       -0.6158710789   -0.2121331939   -1.7897286254
H        2.3104035837   -3.3867710577    0.1810661821
H        3.9896932900   -3.3378128589   -0.3329213797
H        3.5343124233   -1.7020925337   -2.0438377039
H        1.9933895746   -2.5711685503   -2.0756110633
H        2.9322091550   -1.8320082620    1.8412999391
H        4.4440958682   -1.4469408723    1.0268370338
H        2.0965211191    0.1094211427   -1.6721289852
H       -1.7701222648   -2.3925302638   -0.0641441733
H       -1.2504226173   -2.4673256876    1.6442981685
H       -1.7990228180   -0.9250048514    0.9211070804
H        2.3321722305    0.2525185942    0.9108958617
H        0.8518916128   -1.8604836469    1.0047284370
21   
torsion grid (-30,)
C        0.4828620465   -0.9121244539   -0.7344721710
C        3.0849063141   -2.7320950386   -0.2264044790
C        2.7006958632   -1.9182290967   -1.4744576492
C        3.3814947927   -1.6585108235    0.8447331245
C        1.9926984466   -0.6730058473   -0.8959448498
C       -1.2655512534   -1.8171723228    0.7719979749
N        2.7565223658   -0.4232884474    0.3261211727
N        0.1088191433   -1.4805977193    0.4285078180
S       -0.5824435770   -0.5555648240   -1.9634959675
H        2.2463654021   -3.3651690301    0.0805190844
H        3.9412553537   -3.3878624459   -0.4030697930
H        3.5975243568   -1.5867157628   -2.0063966787
H        2.0670358666   -2.4627809861   -2.1763346437
H        2.9922505081   -1.9560980742    1.8298994293
H        4.4611067798   -1.5061472335    0.9667596109
H        2.0835373433    0.1710099819   -1.5835494473
H       -1.6685700257   -2.5460415108    0.0627193313
H       -1.2790180990   -2.2371443724    1.7802212797
H       -1.9007475087   -0.9266246571    0.7323805401
H        2.3072300074    0.1724746248    1.0116071684
H        0.8234717982   -1.6084821631    1.1338625693
21   
torsion grid (-15,)
C        0.4828121936   -1.0034844553   -0.7416745508
C        3.0987475784   -2.7404372648   -0.3015505785
C        2.7477712757   -1.8560077840   -1.5104757841
C        3.3612940907   -1.7302123679    0.8374347498
C        1.9829709432   -0.6762908004   -0.8701258487
C       -1.2852241620   -1.7594747342    0.8203584435
N        2.7325641643   -0.4814633027    0.3654528907
N        0.0803574259   -1.3848067421    0.4834501478
S       -0.5356478656   -0.9107954792   -2.0569019583
H        2.2489749023   -3.3844154965   -0.0536233530
H        3.9596489160   -3.3872479499   -0.4883210635
H        3.6567264905   -1.4645808491   -1.9773607300
H        2.1557863402   -2.3641185705   -2.2722162509
H        2.9494700323   -2.0904672133    1.7918683657
H        4.4359196057   -1.5721859875    0.9940381513
H        2.0418695474    0.2113203598   -1.5054954817
H       -1.6036139108   -2.6214178954    0.2261385905
H       -1.3260086494   -2.0077608303    1.8832232097
H       -1.9713068089   -0.9345272587    0.6053099669
H        2.3371147667    0.1391921282    1.0610080576
H        0.7812190480   -1.3909877089    1.2146664503
21   
torsion grid (0,)
C        0.4440478966   -0.9809705474   -1.4588464842
C        3.5917071373   -2.4316822812    0.1539727989
C        2.2355086726   -2.6402723413   -0.5692780551
C        3.7327104705   -0.8828963481    0.2839298065
C        1.8896025036   -1.2193984826   -1.0656867289
C       -1.5181648014    0.4699485377   -1.0670579975
N        2.4052285143   -0.3018685506   -0.0242465507
N       -0.1549083766    0.0322202818   -0.7998095800
S       -0.3224501739   -1.9496655238   -2.5767130178
H        3.5952729415   -2.9165524993    1.1344221281
H        4.4229351310   -2.8544125805   -0.4178883896
H        2.2797893886   -3.3591586931   -1.3880763401
H        1.4581164654   -2.9790361721    0.1237487379
H        4.0618665179   -0.5554250094    1.2733268378
H        4.4504259164   -0.4970792293   -0.4470118927
H        2.4823531723   -1.0244913070   -1.9686082041
H       -2.2127367561   -0.3576138647   -0.9037851971
H       -1.7570768679    1.2906854266   -0.3872370401
H       -1.6299163062    0.8012540859   -2.1054482262
H        1.8345689709   -0.4615041375    0.8107186917
H        0.4709147663    0.6755835900   -0.3228980887
21   
torsion grid (15,)
C        0.3898364953   -1.0417147848   -1.3688124142
C        3.6387956086   -2.4263025048    0.1049861056
C        2.2933855274   -2.6662628713   -0.6282028191
C        3.6894557295   -0.8849162067    0.3409161945
C        1.8556032336   -1.2418745408   -1.0252618953
C       -1.4944523391    0.5419610613   -1.1233156180
N        2.3327518546   -0.3604103596    0.0660851446
N       -0.1345349653    0.0924725598   -0.8667304078
S       -0.4624672038   -2.1348680665   -2.2936873356
H        3.6773961775   -2.9771512798    1.0491514313
H        4.4911698604   -2.7573447446   -0.4956121819
H        2.3780329715   -3.3265148620   -1.4919089733
H        1.5424958589   -3.1001828174    0.0395252040
H        3.9988151881   -0.6060983561    1.3514161220
H        4.3847722753   -0.4104539371   -0.3591744575
H        2.4161574641   -0.9508054066   -1.9247975607
H       -2.2103708698   -0.2138103294   -0.7888245166
H       -1.6596771845    1.4734413151   -0.5777134878
H       -1.6568879161    0.7047828282   -2.1942409564
H        1.7642859509   -0.5833213323    0.8873380155
H        0.5252314659    0.7270389897   -0.4236083852
21   
torsion grid (30,)
C        0.3478512093   -1.0800173341   -1.2769814991
C        3.6739198805   -2.4225054454    0.0606301731
C        2.3431698815   -2.6715463604   -0.6964303687
C        3.6559968707   -0.9008861429    0.4003476601
C        1.8319114310   -1.2487321262   -0.9896906895
C       -1.4762801329    0.5912733579   -1.1804677891
N        2.2803593230   -0.4168164122    0.1534782186
N       -0.1114765745    0.1433175232   -0.9533126716
S       -0.5842727196   -2.2703922478   -1.9756897674
H        3.7309533881   -3.0333190790    0.9662026891
H        4.5440814659   -2.6751755089   -0.5524889303
H        2.4654793776   -3.2618123999   -1.6056598803
H        1.6150507574   -3.1946251018   -0.0699972893
H        3.9509511225   -0.6774040215    1.4288328774
H        4.3323677304   -0.3510922977   -0.2626512805
H        2.3574250917   -0.8671850979   -1.8774044199
H       -2.1854324763   -0.0534432624   -0.6519752207
H       -1.5689011275    1.6169331699   -0.8172338649
H       -1.7216705725    0.5525849224   -2.2465711231
H        1.7127949455   -0.6964597314    0.9570438154
H        0.5655163112    0.7749679503   -0.5324534311
21   
torsion grid (45,)
C        0.3196976416   -1.0967237855   -1.1893566842
C        3.7025022185   -2.4213138861    0.0140398160
C        2.3824284158   -2.6587976385   -0.7645157984
C        3.6305183259   -0.9320599892    0.4680337275
C        1.8187505638   -1.2403923741   -0.9560256410
C       -1.4659016420    0.6201234817   -1.2391042851
N        2.2443856495   -0.4713961421    0.2403056349
N       -0.0905260615    0.1809126344   -1.0635897589
S       -0.6812209138   -2.3538507236   -1.6215638312
H        3.7790792446   -3.0972088038    0.8705946223
H        4.5825529375   -2.5957611592   -0.6121765321
H        2.5288519322   -3.1763079088   -1.7145478459
H        1.6733886838   -3.2535012758   -0.1830244262
H        3.9069743669   -0.7786812943    1.5144441812
H        4.2974243898   -0.3129859186   -0.1417626281
H        2.3148664997   -0.7773329205   -1.8213984261
H       -2.1308131066    0.1208218844   -0.5260254137
H       -1.5061903742    1.7007339069   -1.0867788446
H       -1.8150857703    0.3768630950   -2.2467416314
H        1.6730564835   -0.8037711570    1.0200500673
H        0.5950556981    0.8282943290   -0.6833290939
21   
torsion grid (60,)
C        0.3041912738   -1.0911143215   -1.1018703553
C        3.7238061751   -2.4255401057   -0.0296418704
C        2.4152762066   -2.6279713155   -0.8359686400
C        3.6154999098   -0.9802124960    0.5415617975
C        1.8146153860   -1.2147130042   -0.9168453186
C       -1.4687785514    0.6292831831   -1.2981287006
N        2.2254555841   -0.5245386709    0.3315899168
N       -0.0832161603    0.1987961407   -1.1858411658
S       -0.7454430654   -2.3758822373   -1.2199795812
H        3.8084377984   -3.1668022459    0.7701989973
H        4.6123431295   -2.5299527175   -0.6595511105
H        2.5822428658   -3.0604249730   -1.8253991498
H        1.7174366930   -3.2852299454   -0.3122619856
H        3.8743994365   -0.9079103464    1.6012130506
H        4.2809726687   -0.3028066469   -0.0050022383
H        2.2872170690   -0.6744034262   -1.7494958665
H       -2.0573362921    0.2966328436   -0.4356996778
H       -1.4883397722    1.7193942673   -1.3606460554
H       -1.9218465280    0.2017777519   -2.1964803110
H        1.6478394587   -0.9065482702    1.0828317630
H        0.6150218974    0.8858308901   -0.9170562905
21   
torsion grid (75,)
C        0.3627327206   -1.0539639079   -0.9861796450
C        3.4931250098   -2.5485466699    0.1403376357
C        2.5780170944   -2.4729228691   -1.1004134253
C        3.6710256317   -1.0720714413    0.5349863199
C        1.8915488754   -1.0822635484   -0.9970660142
C       -1.5328130305    0.5301996493   -1.2001291945
N        2.3731576198   -0.4263200436    0.2535145245
N       -0.1229799436    0.1726092786   -1.2620566682
S       -0.6068143724   -2.3484644117   -0.5892422140
H        2.9876028330   -3.0863791682    0.9500503787
H        4.4408216703   -3.0577798660   -0.0600190686
H        3.1616290103   -2.5269929133   -2.0243929185
H        1.8406284449   -3.2764306690   -1.1175533440
H        3.9471793850   -0.9177835526    1.5820437127
H        4.4388731578   -0.5953019224   -0.0872315979
H        2.2274525537   -0.4610709306   -1.8379459493
H       -1.9306419578    0.3774989976   -0.1911452411
H       -1.6367033481    1.5794579213   -1.4842667184
H       -2.1098752529   -0.0957932128   -1.8861226776
H        1.7312554885   -0.7007410844    0.9990110567
H        0.5545735932    0.9207247188   -1.3586517435
21   
torsion grid (90,)
C        0.3740478977   -0.9787754654   -0.8647969437
C        3.5012387626   -2.5841683929    0.0747813111
C        2.5633726311   -2.3943205395   -1.1362853510
C        3.7064354612   -1.1478762106    0.5872653019
C        1.9001226611   -1.0041011374   -0.9025475484
C       -1.5704346659    0.4966409623   -1.2936263874
N        2.4137666242   -0.4635188694    0.3848354965
N       -0.1523699722    0.1685117607   -1.3324318391
S       -0.5461648640   -2.2019136797   -0.2036170691
H        3.0014151576   -3.1803548258    0.8456719384
H        4.4378753828   -3.0863742871   -0.1866645361
H        3.1268246009   -2.3797663417   -2.0744083540
H        1.8150633540   -3.1851041580   -1.2000249437
H        4.0013055056   -1.0863967603    1.6387270069
H        4.4723354748   -0.6311858479   -0.0049983896
H        2.2329304056   -0.3209952154   -1.6961138605
H       -1.9311119941    0.5363238762   -0.2603812826
H       -1.7154467154    1.4662666787   -1.7744174047
H       -2.1474890829   -0.2672950747   -1.8216086267
H        1.7799527577   -0.7910061350    1.1153800603
H        0.4961258006    0.8930740173   -1.6172113703
21   
torsion grid (105,)
C        0.3912562451   -0.8822156354   -0.7306247800
C        3.4867971384   -2.6137935692    0.0102850931
C        2.5321189486   -2.3019150187   -1.1609519595
C        3.7520558562   -1.2270078401    0.6223277214
C        1.9142495289   -0.9120276593   -0.7994449384
C       -1.6012032926    0.4345687531   -1.3890749714
N        2.4799588431   -0.4883823694    0.5036767616
N       -0.1718578321    0.1556037823   -1.3751059761
S       -0.4858404483   -2.0027022913    0.1408755773
H        2.9807887208   -3.2477487901    0.7456406857
H        4.3994453511   -3.1261515676   -0.3101790462
H        3.0772883738   -2.2269438506   -2.1071489490
H        1.7611272641   -3.0654506925   -1.2720003212
H        4.0712911066   -1.2554557274    1.6679892136
H        4.5240389887   -0.6938979258    0.0527204877
H        2.2417483311   -0.1802238049   -1.5511387808
H       -1.9652716943    0.6295271372   -0.3751924648
H       -1.7782340062    1.3074268358   -2.0207834280
H       -2.1495423037   -0.4252936986   -1.7836967205
H        1.8508634618   -0.8444990420    1.2246320090
H        0.4487166020    0.8242473286   -1.8152780055
21   
torsion grid (120,)
C        0.4193716924   -0.7796878228   -0.6042886797
C        3.4414676910   -2.6312504062   -0.0568266327
C        2.5137188411   -2.1708092761   -1.1983320821
C        3.7854918484   -1.3129633243    0.6578816915
C        1.9402038134   -0.7983062052   -0.6994879373
C       -1.6218058750    0.3265806297   -1.4690743273
N        2.5548584763   -0.5014162929    0.6106717981
N       -0.1807745677    0.1256745111   -1.3975655328
S       -0.4188523921   -1.7974811218    0.4189556318
H        2.8944056305   -3.2870760096    0.6278100138
H        4.3221933760   -3.1714183056   -0.4187240009
H        3.0750985814   -2.0181800321   -2.1256832840
H        1.7197352703   -2.8922205252   -1.3986955922
H        4.1085584237   -1.4409589259    1.6948347823
H        4.5840474813   -0.7816019378    0.1240847997
H        2.2544703848   -0.0133049796   -1.4015889347
H       -2.0157928868    0.6222658380   -0.4918248737
H       -1.8267514575    1.1084645559   -2.2031759947
H       -2.1202976064   -0.6004364707   -1.7665525374
H        1.9167730023   -0.8641797018    1.3203738359
H        0.4136754558    0.7359701570   -1.9452649354
21   
torsion grid (135,)
C        0.4693637107   -0.6632279330   -0.4857347418
C        3.3285367736   -2.6507730976   -0.1086404479
C        2.4990474769   -2.0229977005   -1.2416424467
C        3.8063366724   -1.4158008694    0.6722511748
C        1.9869568387   -0.6680003731   -0.6313514426
C       -1.6213625964    0.1844336628   -1.5131483618
N        2.6723815059   -0.4722782673    0.6576941527
N       -0.1723007005    0.0711671537   -1.4127229943
S       -0.3229786432   -1.5353162140    0.6957701807
H        2.6858290658   -3.2642413343    0.5304097693
H        4.1462320222   -3.2764918646   -0.4808023849
H        3.1266722947   -1.8145426368   -2.1143621704
H        1.6765264223   -2.6647503789   -1.5652544754
H        4.0994963627   -1.6296925605    1.7038825407
H        4.6676816025   -0.9545438374    0.1715289849
H        2.2698677974    0.1528442439   -1.3053608845
H       -2.0365015094    0.6011063359   -0.5904980441
H       -1.8600448773    0.8383982280   -2.3543920253
H       -2.0716211879   -0.8000055916   -1.6707147784
H        2.0162546003   -0.7587958764    1.3853323974
H        0.3934215515    0.6011732654   -2.0647167945
21   
torsion grid (150,)
C        0.5246969671   -0.5584137018   -0.3888034368
C        3.1953961550   -2.6462854560   -0.1828038390
C        2.5155958363   -1.8426444761   -1.3002785450
C        3.7847465883   -1.5303358380    0.6926935384
C        2.0413092528   -0.5320982635   -0.5784664569
C       -1.6067024706    0.0109487684   -1.5242281995
N        2.7859995287   -0.4424099789    0.6849241955
N       -0.1540856173   -0.0145130989   -1.4166251206
S       -0.2249787558   -1.2642674840    0.9224401309
H        2.4478022537   -3.2093197708    0.3844342354
H        3.9458570692   -3.3466184908   -0.5634226193
H        3.2399845913   -1.5835796993   -2.0800639972
H        1.6891208469   -2.3773296570   -1.7755120724
H        3.9902344626   -1.8392574192    1.7214568730
H        4.7271090921   -1.1663329014    0.2623984318
H        2.2820921204    0.3355899483   -1.2093914062
H       -2.0435284545    0.5350411364   -0.6689570115
H       -1.8762690105    0.5252785098   -2.4490426643
H       -2.0089166932   -1.0065155070   -1.5373797020
H        2.1192499256   -0.6129366405    1.4382576159
H        0.3850814951    0.4236643746   -2.1541027420
21   
torsion grid (165,)
C        0.6226054719   -0.4772103884   -0.3329268082
C        3.0058345501   -2.6153152295   -0.3043994983
C        2.6152966666   -1.6265024878   -1.4107071753
C        3.6331297526   -1.6897543302    0.7491023786
C        2.1345261498   -0.3865780109   -0.6087866313
C       -1.5859352253   -0.2073683164   -1.4354525917
N        2.9743143598   -0.3685983004    0.5873685512
N       -0.1298319780   -0.1718409753   -1.4081342173
S       -0.0303531442   -0.9363269330    1.1289066803
H        2.1107443192   -3.0986423758    0.0976379279
H        3.6919156833   -3.3921114993   -0.6547726771
H        3.4952143057   -1.3477897301   -2.0007571122
H        1.8547770808   -2.0111744558   -2.0954310064
H        3.4963645828   -2.0645109058    1.7679069900
H        4.7116593863   -1.5845543429    0.5747069306
H        2.2922928207    0.5288858448   -1.1984165016
H       -1.9996343080    0.4665141786   -0.6790287798
H       -1.9216368481    0.1014335279   -2.4277868147
H       -1.9493692404   -1.2169560930   -1.2216644681
H        2.3859732134   -0.1786084864    1.3957132077
H        0.3519075840    0.1346736642   -2.2455511764
21   
torsion grid (180,)
C        0.6863043945   -0.3952948377   -0.2931237795
C        2.9263806452   -2.5757567868   -0.4295871521
C        2.6743554588   -1.4833208407   -1.4798513907
C        3.4709880602   -1.7852013377    0.7766790002
C        2.1962940052   -0.2972984378   -0.6102613272
C       -1.5560499257   -0.3485666018   -1.3589492358
N        3.0791348421   -0.3699081785    0.5456134405
N       -0.0992206484   -0.3244809813   -1.3856840130
S        0.0776359294   -0.5666109227    1.2472488629
H        1.9815698386   -3.0631108686   -0.1705279390
H        3.6187513796   -3.3455791112   -0.7808540098
H        3.6089750717   -1.1984325411   -1.9733707985
H        1.9597586204   -1.7845245302   -2.2501885984
H        3.0595831283   -2.1645415363    1.7180373994
H        4.5638864347   -1.8537560236    0.8337685963
H        2.3394562030    0.6576617889   -1.1364992360
H       -1.9435057146    0.4736028296   -0.7492247911
H       -1.9232421159   -0.2541054676   -2.3832319530
H       -1.9141670384   -1.2866360331   -0.9249911988
H        2.6007490727    0.0019858737    1.3634590363
H        0.3521575416   -0.1784611012   -2.2809337043
