17   
torsion grid (-165,)
C       -0.3562743075    0.3845323904   -0.4282894398
C        1.1616676234    0.2069420991    1.4571018445
C        0.3762033218   -1.8466150544    0.2277703823
N       -1.0304181795    2.4223158374   -1.3788470494
N       -0.2207355881    1.7332934579   -0.4593532235
N        0.2907135005   -0.3840531963    0.4286477348
O       -1.1529066324   -0.1650213291   -1.3167407682
H        0.6358040493    0.9943920515    2.0033039293
H        2.0888047439    0.5952379013    1.0216592105
H        1.4170667059   -0.5739079820    2.1722129953
H       -0.2934746251   -2.1559666010   -0.5704572636
H        0.0898814518   -2.3476041632    1.1545209443
H        1.4051386160   -2.1100368576   -0.0310664303
H       -1.6744138869    3.0483085761   -0.8948131949
H       -0.4521866004    2.9515546690   -2.0312440283
H        0.4025692005    2.2241825472    0.1730320829
H       -1.5446198272    0.5744523404   -1.8492902907
17   
torsion grid (-150,)
C       -0.1706461160    0.8784197950    0.0866263776
C        1.2995785799   -1.0120622691   -0.2974366096
C        0.2238706703   -0.6572973017    1.9337191566
N       -1.0531754453    2.2152770362   -1.6297060501
N       -0.3729617316    1.0470800399   -1.2413272145
N        0.5421184717   -0.1166359281    0.5920019624
O       -0.7712585724    1.7133300748    0.9032653247
H        2.0109991539   -1.5677351425    0.3130056030
H        1.8731963192   -0.4343040143   -1.0258197114
H        0.6434913030   -1.7285954126   -0.8051953089
H       -0.3510032499   -1.5804914354    1.8167634778
H       -0.3510776064    0.0680435180    2.5043092809
H        1.1568120297   -0.8678364153    2.4588251838
H       -0.4457689715    2.8252180031   -2.1777808093
H       -1.8823312542    1.9710601217   -2.1708106211
H        0.0347530846    0.4177429024   -1.9255121009
H       -1.2437770988    2.3807931149    0.3432194942
17   
torsion grid (-135,)
C       -0.1049482370    0.9265269488    0.1014892815
C        1.3580973983   -0.9628453815   -0.2766973617
C        0.1639017998   -0.6902864669    1.8918470281
N       -1.0760871135    2.1826350150   -1.6292811610
N       -0.4250459305    1.0076332371   -1.2088334017
N        0.6110911385   -0.0660529510    0.6218337385
O       -0.6238633273    1.8184878574    0.9123371263
H        2.1013222628   -1.4905197190    0.3215603475
H        1.8942666258   -0.3855076123   -1.0327707479
H        0.7048784451   -1.7063576869   -0.7499520498
H       -0.4582334002   -1.5598126355    1.6586832217
H       -0.4012916477    0.0266583060    2.4834643253
H        1.0416234872   -1.0047894864    2.4578724949
H       -0.4845675237    2.7222651887   -2.2622874138
H       -1.9520788254    1.9418055735   -2.0925530540
H       -0.0722336742    0.3295678260   -1.8780498099
H       -1.1340119119    2.4625986736    0.3594848712
17   
torsion grid (-120,)
C       -0.0366903926    0.9758880904    0.1137981384
C        1.4218732647   -0.9137679733   -0.2479701996
C        0.1006655373   -0.7203125296    1.8342418830
N       -1.1102943540    2.1417491539   -1.6221431055
N       -0.4676296057    0.9754274285   -1.1631767180
N        0.6763049102   -0.0174495818    0.6561703736
O       -0.4647819249    1.9297810751    0.9039851201
H        2.1713107671   -1.4361863245    0.3476745665
H        1.9492655376   -0.3342351964   -1.0083337500
H        0.7731751206   -1.6655810071   -0.7164398481
H       -0.5693040768   -1.5129144705    1.4855905853
H       -0.4430474877   -0.0162267223    2.4620617742
H        0.9163728706   -1.1524398990    2.4145579852
H       -0.5538326689    2.6066933325   -2.3407528366
H       -2.0270556055    1.8987144739   -1.9973419599
H       -0.1813835379    0.2413098475   -1.8059652826
H       -1.0121287879    2.5515569895    0.3621907092
17   
torsion grid (-105,)
C        0.0336076679    1.0169486850    0.1226395222
C        1.4929558761   -0.8667204031   -0.2165489528
C        0.0255787833   -0.7435728323    1.7618498405
N       -1.1508900465    2.0942399239   -1.6009406947
N       -0.5062117039    0.9434517683   -1.1052132858
N        0.7353161485    0.0172192404    0.6945097548
O       -0.2810170415    2.0408184735    0.8731067062
H        2.2401624921   -1.3915748871    0.3804297104
H        2.0220501443   -0.2742639220   -0.9654119495
H        0.8569808606   -1.6205789749   -0.7010283463
H       -0.6663583120   -1.4590351105    1.3039903009
H       -0.5158509718   -0.0578865166    2.4131617391
H        0.7693504038   -1.2749664772    2.3561289936
H       -0.6490465711    2.4734582496   -2.4052405288
H       -2.1056554324    1.8565956118   -1.8707377075
H       -0.3020013956    0.1487207374   -1.7074811332
H       -0.8561513356    2.6491531204    0.3449334663
17   
torsion grid (-90,)
C        0.0781328650    0.7786898267   -0.2263112788
C        1.7944674899   -0.8372208644    0.1546622489
C       -0.3373666372   -0.9630719703    1.3814235838
N       -1.2390563504    2.3786431241   -1.3326833524
N       -0.9615343577    1.0353784197   -1.0211440442
N        0.3420026482   -0.5110142488    0.1289252638
O        0.9011377606    1.7486543884    0.0693945121
H        2.3046010948   -0.3887915714    1.0129952186
H        2.2645570871   -0.5006741285   -0.7701063599
H        1.8734666569   -1.9238229489    0.2102333896
H       -0.2647545477   -2.0500317430    1.4274157393
H       -1.3937118528   -0.6873306990    1.3617640244
H        0.1431624287   -0.5218018332    2.2609284700
H       -1.2490449868    2.4982623433   -2.3462073503
H       -2.1427969870    2.6566735677   -0.9468342835
H       -1.5420229151    0.2565677622   -1.3328788308
H        0.5715801697    2.5828972623   -0.3534295156
17   
torsion grid (-75,)
C        0.1169223313    0.7851100117   -0.2626090775
C        1.8415246665   -0.8000141387    0.2458592846
C       -0.3748673565   -1.0042867991    1.3029607063
N       -1.2601255184    2.3819114786   -1.3017429962
N       -1.0056498872    1.0446939056   -0.9497800932
N        0.3960218107   -0.4717783514    0.1432035434
O        1.0164434896    1.7297559398   -0.1625423536
H        2.2960416660   -0.3613110433    1.1394906287
H        2.3661072672   -0.4486688620   -0.6422442966
H        1.9180115697   -1.8870299904    0.2941365676
H       -0.3339685318   -2.0934924709    1.2743505180
H       -1.4196202729   -0.6934533302    1.2480874554
H        0.0644827457   -0.6416306646    2.2374562815
H       -1.3886108559    2.4505854450   -2.3115782836
H       -2.0924310762    2.7314020864   -0.8247066257
H       -1.6630892379    0.2899164676   -1.1393663972
H        0.6656267563    2.5402970026   -0.6128274265
17   
torsion grid (-60,)
C        0.1440066547    0.7881594156   -0.2875429103
C        1.8802226091   -0.7598695594    0.3231173010
C       -0.4008661304   -1.0426139139    1.2336780941
N       -1.2657124482    2.3790846318   -1.2911849962
N       -1.0428585045    1.0580530125   -0.8665047023
N        0.4412218548   -0.4333642671    0.1723637207
O        1.0797660265    1.7028698498   -0.3527510824
H        2.2971881209   -0.3165275113    1.2323900220
H        2.4355063822   -0.4065023142   -0.5444209392
H        1.9584668947   -1.8463733301    0.3778520151
H       -0.4011825480   -2.1263213649    1.1102369937
H       -1.4285852426   -0.6822871398    1.1740948755
H        0.0121702725   -0.7837178301    2.2131262867
H       -1.4871497709    2.3879158824   -2.2869170312
H       -2.0264971272    2.8089866359   -0.7636957553
H       -1.7532666184    0.3341503515   -0.9449933389
H        0.7003891411    2.4903641380   -0.8207011178
17   
torsion grid (-45,)
C        0.1615889860    0.7915646242   -0.2990256284
C        1.9129484413   -0.7169075368    0.3878936188
C       -0.4197329583   -1.0761954798    1.1741759984
N       -1.2681196599    2.3662935877   -1.2969370657
N       -1.0718242211    1.0770314124   -0.7737888270
N        0.4780018597   -0.3929887877    0.2163743285
O        1.1103195959    1.6752622288   -0.4982691453
H        2.3112676831   -0.2633989120    1.3002193643
H        2.4801097942   -0.3675793906   -0.4730334959
H        1.9942851599   -1.8025581929    0.4537713956
H       -0.4992064508   -2.1336695046    0.9155655085
H       -1.4147529588   -0.6312140668    1.1698155901
H        0.0000680790   -0.9772969141    2.1790771681
H       -1.5598662030    2.3067582913   -2.2725454659
H       -1.9669901260    2.8757806051   -0.7554321289
H       -1.8095404234    0.3785089681   -0.7719881171
H        0.7042629685    2.4426157547   -0.9777256630
17   
torsion grid (-30,)
C        0.1823422474    0.8025267231   -0.3050621173
C        1.9418265363   -0.6786891242    0.4602052057
C       -0.4372552422   -1.0819173765    1.1295865570
N       -1.2783380562    2.3288205379   -1.3309397395
N       -1.0821420448    1.0887518470   -0.6997802770
N        0.5140675202   -0.3341365003    0.2845264310
O        1.1263348907    1.6598089354   -0.6177879552
H        2.3150438915   -0.2913357932    1.4123667326
H        2.5298818068   -0.2684345470   -0.3581822934
H        2.0212883571   -1.7667166697    0.4499166144
H       -0.7164402493   -2.0273819224    0.6570912749
H       -1.3305529186   -0.4893227209    1.3311718762
H        0.0488457178   -1.2906124148    2.0845829640
H       -1.6218528617    2.1913590942   -2.2815355782
H       -1.9353805290    2.9027688138   -0.8022580990
H       -1.8283525046    0.4046964341   -0.6219960618
H        0.6935030048    2.4018213700   -1.1137580994
17   
torsion grid (-15,)
C        0.2091387122    0.7918766642   -0.3385713443
C        1.9773451075   -0.6203475820    0.5639803396
C       -0.4572205382   -1.0631723452    1.0784864109
N       -1.2965390434    2.2568384593   -1.3869550268
N       -1.0790105190    1.0812064164   -0.6486217611
N        0.5546119892   -0.2860719818    0.3401416061
O        1.1396998489    1.6027794440   -0.7878580880
H        2.2541046938   -0.3891438836    1.5958827922
H        2.6066620465   -0.0538685448   -0.1179785209
H        2.1102056102   -1.6874138352    0.3764620878
H       -1.0530418540   -1.6842509928    0.4016855670
H       -1.1061837455   -0.4027238494    1.6603520027
H        0.0622807547   -1.7223145832    1.7720799990
H       -1.7325067950    2.0382088218   -2.2828085910
H       -1.8817279132    2.9074359473   -0.8627661078
H       -1.8427337865    0.4663210279   -0.3865858046
H        0.6777349982    2.3166475039   -1.2987781256
17   
torsion grid (0,)
C        0.2134019208    0.7787707356   -0.3625268718
C        1.9862215223   -0.5787157910    0.6234483113
C       -0.4565069576   -1.0774892161    1.0472603377
N       -1.3025052431    2.2261719287   -1.4195366680
N       -1.0815687282    1.1146061509   -0.5886124284
N        0.5652732744   -0.2404994747    0.3968607823
O        1.1392017233    1.5146302396   -0.9348587617
H        2.1989223878   -0.5186525840    1.6932602968
H        2.6272280986    0.1155380215    0.0864599518
H        2.1700670056   -1.5948724272    0.2671501167
H       -1.0926395795   -1.5694128497    0.3047273024
H       -1.0636584006   -0.4882478448    1.7416785113
H        0.0526702507   -1.8511847738    1.6191769299
H       -1.8290334469    1.9532375385   -2.2494353204
H       -1.8015832431    2.9575941948   -0.9131772427
H       -1.8504170415    0.5934765303   -0.1804887536
H        0.6677460232    2.2170563083   -1.4532390584
17   
torsion grid (15,)
C        0.2082220262    0.7599366278   -0.3810306998
C        1.9796710373   -0.5331905347    0.6797355137
C       -0.4582148142   -1.1029377321    1.0258048682
N       -1.2980079949    2.2027019801   -1.4589645300
N       -1.0768452195    1.1631691065   -0.5397130228
N        0.5569531436   -0.1977918243    0.4574953746
O        1.1341397932    1.3983359027   -1.0596320981
H        2.1381063816   -0.6517659416    1.7531808724
H        2.6152425236    0.2668224182    0.3082045290
H        2.2251068461   -1.4655826195    0.1646833553
H       -1.1353583809   -1.4653777755    0.2473351569
H       -1.0234676168   -0.6138051524    1.8258228712
H        0.0559263936   -1.9625380728    1.4526345336
H       -1.9091087454    1.8910361095   -2.2138942050
H       -1.7063004704    3.0110887181   -0.9896801567
H       -1.8350091799    0.7557420640   -0.0019350903
H        0.6717638430    2.0961634125   -1.5918998370
17   
torsion grid (30,)
C        0.1804195733    0.7312398871   -0.3998309845
C        1.9480174658   -0.4491706759    0.7653496979
C       -0.4393099483   -1.1575823144    1.0289929432
N       -1.2826480279    2.1686519127   -1.5438860098
N       -1.0787402821    1.2144841239   -0.5326436882
N        0.5188474665   -0.1569513698    0.5200827572
O        1.1153046628    1.2510700705   -1.1611575771
H        2.0489307951   -0.7427391385    1.8112262376
H        2.5489934127    0.4392753397    0.5826828421
H        2.2887759079   -1.2635591181    0.1199039688
H       -1.3489305014   -1.1693442993    0.4271311726
H       -0.6876384176   -0.9606295428    2.0752441558
H        0.0258268839   -2.1422854161    0.9523546681
H       -1.9642579919    1.8329160637   -2.2245583667
H       -1.5986362154    3.0502950453   -1.1396742680
H       -1.8132297252    0.9645305135    0.1222307761
H        0.6810945081    1.9418056055   -1.7253008899
17   
torsion grid (45,)
C        0.1597219045    0.7228391667   -0.3903740716
C        1.9217838526   -0.3897643248    0.8228205373
C       -0.4230550000   -1.1991469096    1.0107156545
N       -1.2740215033    2.1461732660   -1.5896042061
N       -1.0663054245    1.2821139187   -0.5011785525
N        0.4857214127   -0.1070634690    0.5965031177
O        1.0958976506    1.1408983969   -1.2086034164
H        2.0225919448   -0.7559011903    1.8452548713
H        2.5041893581    0.5230317431    0.7109935206
H        2.2873127417   -1.1480094289    0.1241651334
H       -1.4261694070   -1.0519702832    0.6104777677
H       -0.4750407534   -1.2427293001    2.1001421588
H       -0.0315445057   -2.1451157021    0.6264009681
H       -1.9964634660    1.7810235287   -2.2108671878
H       -1.5391957291    3.0724421817   -1.2546696022
H       -1.7901166244    1.1009144417    0.1883310556
H        0.6875131146    1.8222706511   -1.8023603132
17   
torsion grid (60,)
C        0.1419301349    0.7111718770   -0.3898899762
C        1.8915893970   -0.3388106397    0.8828922291
C       -0.4064061273   -1.2473663992    0.9614746827
N       -1.2720448726    2.1441582417   -1.6035094421
N       -1.0345532531    1.3653397728   -0.4580047721
N        0.4508881881   -0.0753238411    0.6483489537
O        1.0610412510    1.0093465904   -1.2747174657
H        1.9895698783   -0.6943854872    1.9093301431
H        2.4621949220    0.5817017388    0.7693258083
H        2.2760940413   -1.0973236615    0.1944131643
H       -1.4390678748   -1.0700942785    0.6585283118
H       -0.3823755668   -1.4294879790    2.0366090421
H       -0.0240520350   -2.1243873866    0.4308292596
H       -2.0545037777    1.7716223610   -2.1427951162
H       -1.4677000415    3.1073675717   -1.3304862892
H       -1.7284259610    1.2537365409    0.2774954524
H        0.6786412633    1.6847416653   -1.8916965503
17   
torsion grid (75,)
C        0.1142727175    0.6869050872   -0.3931632945
C        1.8556997504   -0.2749858134    0.9438518952
C       -0.3829664446   -1.3037868541    0.9047990539
N       -1.2662422249    2.1549749022   -1.6034459345
N       -0.9949426959    1.4408961162   -0.4230753675
N        0.4072182800   -0.0570901459    0.6944957652
O        0.9922925376    0.8353413098   -1.3515762837
H        1.9521019817   -0.6244654159    1.9726156691
H        2.3961943616    0.6653177381    0.8387186123
H        2.2782310289   -1.0204956471    0.2631865134
H       -1.4318095555   -1.1444394155    0.6485304928
H       -0.3200954345   -1.5793267727    1.9578826815
H        0.0248292883   -2.1093526020    0.2862553496
H       -2.1173051712    1.8099836476   -2.0496664524
H       -1.3697982482    3.1465207532   -1.3864095341
H       -1.6323903504    1.4264039954    0.3714740602
H        0.6375297454    1.4996058036   -1.9963257911
17   
torsion grid (90,)
C        0.0746869932    0.6510154404   -0.3960424813
C        1.8117595254   -0.1967929171    1.0060674704
C       -0.3483253019   -1.3684491968    0.8425082097
N       -1.2443178430    2.1833760073   -1.5922845448
N       -0.9488174987    1.5059974918   -0.3955084185
N        0.3543636597   -0.0532074590    0.7375393303
O        0.8706606503    0.6200514235   -1.4309711007
H        1.9104755864   -0.5532145459    2.0323480335
H        2.2990297474    0.7756865133    0.9267180355
H        2.2906044231   -0.9067830405    0.3243914715
H       -1.4089834232   -1.2524366979    0.6104944863
H       -0.2557380196   -1.7156432197    1.8719513589
H        0.1005214449   -2.1001850650    0.1626144289
H       -2.1630184288    1.9075405702   -1.9427578716
H       -1.2303368414    3.1902878250   -1.4262348074
H       -1.5057159191    1.6006642959    0.4539583943
H        0.5359708118    1.2640992611   -2.1066445598
17   
torsion grid (105,)
C        0.0164637561    0.3828155750   -0.7203822229
C        1.5206451068    0.1574556310    1.1449880691
C        0.0002734122   -1.6800420840    0.5168998996
N       -1.1437057575    2.3604234817   -1.2470642431
N       -0.4897569711    1.5523596319   -0.2957215205
N        0.7224845628   -0.4575853786    0.0632952115
O       -0.3374802702   -0.0477958461   -1.9035122597
H        0.9123106449    0.4260595780    2.0197843146
H        2.0573283391    1.0308232371    0.7695663305
H        2.2622116015   -0.5761867444    1.4643962554
H       -0.5711749409   -2.1048187658   -0.3080429849
H       -0.6654347711   -1.4252605936    1.3488961051
H        0.7386042901   -2.4128390513    0.8434261009
H       -2.0863201470    2.5722774397   -0.9192864282
H       -0.6286539993    3.2284046275   -1.4016027235
H       -0.2544930322    1.9063559378    0.6291370778
H       -0.9104822577    0.6395600107   -2.3266295469
17   
torsion grid (120,)
C       -0.0527655626    0.3812876395   -0.6766678539
C        1.4513348904    0.1759705204    1.2007267326
C        0.0729867119   -1.7445893837    0.4725590104
N       -1.1035094641    2.3931787106   -1.2878806711
N       -0.4503150824    1.6161544067   -0.3113843947
N        0.6651772456   -0.4292263318    0.1087460404
O       -0.5197809509   -0.1046769092   -1.8006361749
H        0.8298283099    0.4300129835    2.0694544300
H        1.9868683822    1.0568316760    0.8409477016
H        2.1951177669   -0.5557582481    1.5181067797
H       -0.5004924175   -2.1416513904   -0.3634922884
H       -0.5720945670   -1.6165392427    1.3478349816
H        0.8816385867   -2.4378351859    0.7057361225
H       -2.0052976148    2.7040376357   -0.9267213111
H       -0.5377675729    3.2015711105   -1.5499121382
H       -0.1331902817    2.0242890977    0.5643441475
H       -1.0649188135    0.5989495978   -2.2336136787
17   
torsion grid (135,)
C       -0.1196999243    0.3807493524   -0.6240831240
C        1.3892886275    0.1911937841    1.2574879562
C        0.1341307359   -1.7928259253    0.4260832174
N       -1.0698083449    2.4107550098   -1.3261234380
N       -0.4072347557    1.6681079102   -0.3307723310
N        0.6018327050   -0.4084447731    0.1666320514
O       -0.6768641072   -0.1405067928   -1.6918814285
H        0.7632408099    0.4521406118    2.1197206452
H        1.9334640001    1.0672071255    0.8984373608
H        2.1269530202   -0.5443570598    1.5792826886
H       -0.4601031082   -2.1511202794   -0.4117596967
H       -0.4646599434   -1.7980145266    1.3420065919
H        1.0028514063   -2.4408985025    0.5486322255
H       -1.9286861513    2.8059790724   -0.9438845959
H       -0.4726485924    3.1569999277   -1.6843312670
H       -0.0240517747    2.1158685079    0.4967423853
H       -1.1851850367    0.5791732445   -2.1440418061
17   
torsion grid (150,)
C       -0.1840694681    0.3829485634   -0.5720231337
C        1.3322296551    0.1986026301    1.3120241750
C        0.1923299409   -1.8250978771    0.3812658325
N       -1.0475853773    2.4197433105   -1.3579069833
N       -0.3550593981    1.7092505435   -0.3609956709
N        0.5346907623   -0.3925240591    0.2252272129
O       -0.8219683430   -0.1580493893   -1.5845013226
H        0.7036283010    0.4999574738    2.1580325139
H        1.9128893052    1.0475994873    0.9440235507
H        2.0385584975   -0.5556679300    1.6580146570
H       -0.4111946102   -2.1607325729   -0.4585928862
H       -0.3612672731   -1.9576596731    1.3152920222
H        1.1152675066   -2.4060943891    0.4139756509
H       -1.8574438727    2.8880090578   -0.9519619295
H       -0.4381244625    3.1034971586   -1.8077909425
H        0.0826689748    2.1838749658    0.4222861295
H       -1.2927305720    0.5743493864   -2.0582214409
17   
torsion grid (165,)
C       -0.2419639350    0.3848249050   -0.5201697898
C        1.2744167582    0.2067020405    1.3664832134
C        0.2444072522   -1.8467914313    0.3333073807
N       -1.0280645845    2.4225635352   -1.3804086104
N       -0.3033300317    1.7333634460   -0.3927115961
N        0.4568615618   -0.3838812729    0.2948760356
O       -0.9378336212   -0.1645072523   -1.4896883769
H        0.6501975383    0.5929581705    2.1795693841
H        1.9193984871    0.9956022776    0.9707802891
H        1.9194408497   -0.5738657328    1.7677467927
H       -0.3961471250   -2.1551197563   -0.4888598044
H       -0.2233225836   -2.1125596298    1.2849631027
H        1.2110394202   -2.3466595443    0.2458489088
H       -1.7901782103    2.9503535035   -0.9553373348
H       -0.4176921523    3.0499207366   -1.9045776766
H        0.1804124342    2.2240779040    0.3519948233
H       -1.3748224919    0.5750247875   -1.9856693064
17   
torsion grid (180,)
C       -0.2972738058    0.3838737299   -0.4745658167
C        1.2160231729    0.2146082814    1.4129207572
C        0.3071430759   -1.8567099236    0.2818226352
N       -1.0250352801    2.4222002600   -1.3833394993
N       -0.2578790744    1.7392049116   -0.4242796737
N        0.3722708644   -0.3823215783    0.3644528922
O       -1.0400721037   -0.1666890542   -1.4079315719
H        0.6150467437    0.8017418973    2.1145327569
H        2.0073390120    0.8320512735    0.9764720005
H        1.6888713657   -0.5932754857    1.9685295430
H       -0.3681116021   -2.1582719201   -0.5146219850
H       -0.0556471573   -2.2483375518    1.2347653746
H        1.3074973840   -2.2464819086    0.0794854834
H       -1.7352734355    2.9971510740   -0.9301011214
H       -0.4273296559    3.0029555238   -1.9714376376
H        0.2867689309    2.2348838490    0.2735363672
H       -1.4515188684    0.5754233085   -1.9220930695
