30   
torsion grid (-165,)
C        1.0746312827    1.9381886548    0.8077188698
C        0.1025183258    0.9081953098    0.7443365127
C        1.2495752977    2.6759850767    1.9623760247
C       -0.6833740665    0.6282413508    1.8457128279
C        0.5712798205    3.1461651746    4.3263025435
C        0.4556438530    2.4137144666    3.1104686736
C       -0.5173274187    1.3749140447    3.0376558965
C       -0.2510477532    2.8475183309    5.3892803233
C       -1.2888233116    1.1478972887    4.2211825970
C       -3.0996150589    6.2515684198    6.2183790139
C       -0.2162652710    3.6123718971    6.6887773209
C       -1.8054933689    5.4848567504    5.9248049786
C       -1.5194456047    4.3888950139    6.9573400578
N       -1.1840369788    1.8431907423    5.3253568375
O       -2.2288511962    0.1626570915    4.1748629935
H        1.6874011063    2.1480983835   -0.0654119731
H       -0.0212548581    0.3406265801   -0.1739543974
H        1.9957742799    3.4657438960    2.0041894705
H       -1.4315941102   -0.1570538279    1.8141317557
H        1.2980128094    3.9496066049    4.4066156083
H       -3.9640888494    5.5774658276    6.2198743456
H       -3.2838831219    7.0281395002    5.4680455993
H       -3.0587423329    6.7384789837    7.1998931492
H       -0.0528313189    2.9000169368    7.5061718583
H        0.6339978209    4.3033337324    6.6822968498
H       -0.9605190697    6.1864349316    5.8968535262
H       -1.8629879273    5.0377290101    4.9252228623
H       -1.4608586927    4.8361724576    7.9580486186
H       -2.3528089712    3.6770473490    6.9788083087
H       -2.8037347124    0.3082277989    4.9484519006
30   
torsion grid (-150,)
C        1.0626572708    1.9448762421    0.8096389558
C        0.0912800291    0.9134798285    0.7525054131
C        1.2461751165    2.6793823777    1.9648360013
C       -0.6834547802    0.6271152822    1.8598562144
C        0.5804902422    3.1453934294    4.3336455158
C        0.4629703454    2.4119490098    3.1192844348
C       -0.5082574959    1.3705583086    3.0530428191
C       -0.2397601507    2.8491615622    5.3993315551
C       -1.2669005564    1.1356684370    4.2431831948
C       -3.1089553572    6.2396102669    6.2137369247
C       -0.2085722123    3.6210821166    6.6949781634
C       -1.8103353762    5.4794687130    5.9228842341
C       -1.5163619756    4.3906167838    6.9607370965
N       -1.1676920237    1.8402323893    5.3415169979
O       -2.2093821415    0.1466144341    4.1984368586
H        1.6667897885    2.1586712516   -0.0685593595
H       -0.0404296489    0.3493166907   -0.1667956429
H        1.9906469992    3.4709778183    2.0023551561
H       -1.4301789679   -0.1596634293    1.8335401267
H        1.3040595492    3.9521682155    4.4095997853
H       -3.9693067154    5.5602353837    6.2195608062
H       -3.2987467644    7.0113277455    5.4597751836
H       -3.0702167911    6.7315776817    7.1927904744
H       -0.0400189082    2.9140016153    7.5158274430
H        0.6372877797    4.3174144777    6.6842021828
H       -0.9698702727    6.1862320299    5.8904555227
H       -1.8658368016    5.0269879543    4.9255390861
H       -1.4598930518    4.8433975970    7.9590669880
H       -2.3449248384    3.6733338337    6.9868262125
H       -2.9135602135    0.4085399918    4.8170640312
30   
torsion grid (-135,)
C        1.0619951683    1.9361514852    0.8087570291
C        0.0954157977    0.8992171159    0.7619876357
C        1.2501292614    2.6742708377    1.9605610480
C       -0.6684900058    0.6116001441    1.8761308843
C        0.5970309262    3.1443979021    4.3313610294
C        0.4767709771    2.4055925768    3.1216205392
C       -0.4898822830    1.3585790182    3.0673577968
C       -0.2168451462    2.8481624054    5.4025303722
C       -1.2386691383    1.1212443378    4.2627745294
C       -3.1042042052    6.2232885141    6.2159499530
C       -0.1827055337    3.6276879590    6.6936992651
C       -1.8016254318    5.4712148598    5.9217783171
C       -1.4941996458    4.3894280386    6.9631309796
N       -1.1382906792    1.8332041871    5.3554028260
O       -2.1786016983    0.1208274356    4.2263351978
H        1.6582287027    2.1506748117   -0.0746356208
H       -0.0400946255    0.3317617067   -0.1547853342
H        1.9906090621    3.4699162755    1.9907228560
H       -1.4096555805   -0.1804908092    1.8594700997
H        1.3163293518    3.9558091386    4.4000386772
H       -3.9594259447    5.5375824350    6.2306738054
H       -3.3041394845    6.9894992423    5.4589878545
H       -3.0634462203    6.7208096341    7.1920872901
H       -0.0047055580    2.9260190448    7.5170959216
H        0.6583977502    4.3296518173    6.6742366130
H       -0.9666002784    6.1839991792    5.8814760238
H       -1.8590709142    5.0137654291    4.9267359602
H       -1.4353546453    4.8474663557    7.9588994220
H       -2.3172139591    3.6661671142    6.9975012719
H       -2.9843944013    0.4649206689    4.6463191937
30   
torsion grid (-120,)
C        1.0549323673    1.9284279656    0.8126145896
C        0.0954641355    0.8840354472    0.7751446827
C        1.2408164316    2.6759258081    1.9583828043
C       -0.6650429544    0.5995871861    1.8920136793
C        0.5899442565    3.1540307079    4.3282505142
C        0.4704551647    2.4103762037    3.1224005314
C       -0.4913664975    1.3577101593    3.0776540269
C       -0.2173080824    2.8566200942    5.4046040159
C       -1.2407044917    1.1253077633    4.2735320680
C       -3.1102268986    6.2238984036    6.2318339775
C       -0.1780527173    3.6376428489    6.6948909179
C       -1.8067565912    5.4760103851    5.9309322753
C       -1.4904287394    4.3954253836    6.9708748535
N       -1.1362415363    1.8396162551    5.3634968308
O       -2.1741777059    0.1101677695    4.2492669186
H        1.6484590455    2.1398584498   -0.0733132832
H       -0.0359478341    0.3076979922   -0.1367153887
H        1.9770294755    3.4757397895    1.9821070698
H       -1.3980237062   -0.2001755270    1.8844922939
H        1.3061018122    3.9687583030    4.3919806004
H       -3.9630571935    5.5353487749    6.2513627673
H       -3.3167165559    6.9894130624    5.4759085652
H       -3.0658542400    6.7216232211    7.2076893459
H        0.0058789218    2.9367009061    7.5175147603
H        0.6610920175    4.3418920604    6.6708116482
H       -0.9743242818    6.1915606335    5.8859031375
H       -1.8681331912    5.0182117347    4.9362111341
H       -1.4278412865    4.8540183635    7.9661432413
H       -2.3105764841    3.6692133610    7.0097729448
H       -3.0455965080    0.4955384688    4.4343606564
30   
torsion grid (-105,)
C        1.0587900479    1.9095178137    0.8143449802
C        0.1088520629    0.8558002503    0.7894367855
C        1.2355861140    2.6720324729    1.9513727756
C       -0.6531264695    0.5805958436    1.9074091653
C        0.5833675945    3.1667773188    4.3168732929
C        0.4640943601    2.4150955528    3.1167610012
C       -0.4920907425    1.3565346630    3.0837314255
C       -0.2160826431    2.8686102436    5.3992595433
C       -1.2493240630    1.1380162098    4.2770912879
C       -3.1108732196    6.2266785236    6.2597048349
C       -0.1661039935    3.6492028164    6.6895307158
C       -1.8078219270    5.4838338530    5.9447743393
C       -1.4780070525    4.4023822851    6.9795923066
N       -1.1356534264    1.8520779844    5.3652889861
O       -2.1749748883    0.1089485404    4.2721621362
H        1.6532498529    2.1137866285   -0.0726186654
H       -0.0123327350    0.2636123945   -0.1136626954
H        1.9666396399    3.4767386103    1.9677356321
H       -1.3742973586   -0.2299517398    1.9098583015
H        1.2978622749    3.9835759501    4.3745247939
H       -3.9609052345    5.5349739618    6.2866871553
H       -3.3275563903    6.9927290527    5.5071559429
H       -3.0585035224    6.7229694369    7.2358872969
H        0.0278300144    2.9476329535    7.5093064991
H        0.6709548401    4.3557226017    6.6580660022
H       -0.9783165273    6.2023577055    5.8928745584
H       -1.8775580907    5.0276019642    4.9498247647
H       -1.4069740316    4.8595526808    7.9749414973
H       -2.2951075856    3.6732667163    7.0250951735
H       -3.0655347486    0.4880529672    4.2034947347
30   
torsion grid (-90,)
C        1.0628279682    1.8911871137    0.8175882639
C        0.1238441583    0.8276403915    0.8028659662
C        1.2281465864    2.6699550034    1.9451764937
C       -0.6425866269    0.5632835729    1.9204338955
C        0.5721024617    3.1809779690    4.3046756742
C        0.4525017718    2.4216479611    3.1097469976
C       -0.4985045505    1.3581079833    3.0864457413
C       -0.2200782696    2.8814746013    5.3920399385
C       -1.2683682424    1.1563584086    4.2756311708
C       -3.1094950635    6.2348122818    6.2900004571
C       -0.1578283917    3.6596494479    6.6832347909
C       -1.8085605229    5.4947896921    5.9600148483
C       -1.4675332879    4.4106201237    6.9882938262
N       -1.1445543503    1.8691145345    5.3626720756
O       -2.1861344099    0.1178840520    4.2939993454
H        1.6605067913    2.0879268964   -0.0688512399
H        0.0160375461    0.2185345588   -0.0906389949
H        1.9540645465    3.4794394460    1.9552982102
H       -1.3504132446   -0.2591375615    1.9298685019
H        1.2858655474    3.9988367501    4.3570804556
H       -3.9580256050    5.5416060364    6.3234570977
H       -3.3348062471    7.0027479995    5.5418936289
H       -3.0480894047    6.7283427797    7.2670598632
H        0.0445328347    2.9559227331    7.4991381330
H        0.6786061102    4.3666641665    6.6453555718
H       -0.9805324669    6.2146028839    5.9020251470
H       -1.8877854401    5.0413231308    4.9644821442
H       -1.3870355412    4.8649665918    7.9842166171
H       -2.2831203175    3.6803354393    7.0393611608
H       -3.0435272333    0.4427618965    3.9762018017
30   
torsion grid (-75,)
C        1.0687911001    1.8708728836    0.8183802709
C        0.1372079647    0.8012653723    0.8139926592
C        1.2222439513    2.6647146042    1.9371810259
C       -0.6365783636    0.5499825420    1.9298431055
C        0.5612752715    3.1944063075    4.2923115186
C        0.4414628783    2.4291794428    3.1008727455
C       -0.5071751657    1.3636338697    3.0845232799
C       -0.2257905351    2.8970332713    5.3837142473
C       -1.2900907314    1.1807334614    4.2700127738
C       -3.1091324400    6.2453653138    6.3223928375
C       -0.1528778384    3.6703720216    6.6772920281
C       -1.8106833000    5.5077900747    5.9774617727
C       -1.4601989903    4.4190122843    6.9976499664
N       -1.1576960272    1.8917071147    5.3565443197
O       -2.2065927498    0.1439061533    4.3094883320
H        1.6714815945    2.0583635276   -0.0666442908
H        0.0415870982    0.1754857837   -0.0692641304
H        1.9449791594    3.4770418413    1.9415800563
H       -1.3332639577   -0.2823663735    1.9428220157
H        1.2761183686    4.0114876175    4.3404531301
H       -3.9566692746    5.5512308331    6.3601297445
H       -3.3416410169    7.0166103726    5.5798848855
H       -3.0393387428    6.7344306529    7.3011506160
H        0.0571972964    2.9629394024    7.4881334274
H        0.6830707272    4.3777103522    6.6349720637
H       -0.9835896849    6.2283904700    5.9154259519
H       -1.8987450729    5.0586716646    4.9807011971
H       -1.3708735805    4.8688205273    7.9948886054
H       -2.2747567192    3.6879943781    7.0521380951
H       -2.9800254809    0.3763037963    3.7711247599
30   
torsion grid (-60,)
C        1.0707000994    1.8589865742    0.8202110933
C        0.1431799605    0.7865522491    0.8213690386
C        1.2152593387    2.6617596413    1.9338241643
C       -0.6379723123    0.5436357940    1.9344149693
C        0.5514157303    3.2033579960    4.2838592962
C        0.4289873057    2.4338196658    3.0952498861
C       -0.5198260649    1.3684589567    3.0821410770
C       -0.2333116004    2.9076907808    5.3771718420
C       -1.3120571722    1.1992216912    4.2656182790
C       -3.1071860117    6.2558591924    6.3458699168
C       -0.1511125490    3.6773756718    6.6723391054
C       -1.8118432533    5.5181603765    5.9896951310
C       -1.4555388493    4.4259664287    7.0041852305
N       -1.1723034179    1.9095901871    5.3514478941
O       -2.2351380986    0.1746789620    4.3202361394
H        1.6780215737    2.0405017551   -0.0628560785
H        0.0564135939    0.1499296863   -0.0549204187
H        1.9364743596    3.4754471985    1.9363771353
H       -1.3259669238   -0.2966244657    1.9440491618
H        1.2684718389    4.0185446102    4.3288556273
H       -3.9549453041    5.5622565190    6.3872324094
H       -3.3441247041    7.0296030315    5.6073504877
H       -3.0301550746    6.7418654671    7.3256306277
H        0.0640151863    2.9670414269    7.4794098444
H        0.6853134313    4.3839051973    6.6263103273
H       -0.9844545667    6.2381348209    5.9240100346
H       -1.9074990004    5.0718630154    4.9923874169
H       -1.3587395458    4.8726579096    8.0021419492
H       -2.2702559430    3.6954865929    7.0616323793
H       -2.8854392008    0.2885574494    3.6087855449
30   
torsion grid (-45,)
C        1.0784665288    1.8640937269    0.8177763322
C        0.1499395278    0.7932460694    0.8148078089
C        1.2186685266    2.6671471399    1.9316436099
C       -0.6368303815    0.5546804472    1.9250236438
C        0.5517688738    3.2117621090    4.2783255254
C        0.4267859247    2.4423685774    3.0898061528
C       -0.5266181536    1.3809751500    3.0728819493
C       -0.2351560214    2.9178273067    5.3703547790
C       -1.3261482591    1.2195976149    4.2549629336
C       -3.1069252219    6.2606776371    6.3627620677
C       -0.1482267637    3.6831268568    6.6678500687
C       -1.8131491933    5.5243222344    5.9982837579
C       -1.4517021806    4.4294572991    7.0080720749
N       -1.1809210447    1.9274257513    5.3417870487
O       -2.2632488370    0.2150520066    4.3178284951
H        1.6908856894    2.0436956094   -0.0620768002
H        0.0667368487    0.1541941263   -0.0599719285
H        1.9419028311    3.4790072617    1.9376410037
H       -1.3213714143   -0.2893088707    1.9235226476
H        1.2728774661    4.0231270795    4.3242812560
H       -3.9542713923    5.5667173251    6.4057671397
H       -3.3474003815    7.0366719524    5.6277398506
H       -3.0254328177    6.7436691124    7.3436799597
H        0.0711856185    2.9699332069    7.4713490721
H        0.6875947748    4.3902623127    6.6205247958
H       -0.9862190263    6.2446595103    5.9304073888
H       -1.9137574233    5.0804197049    5.0004298676
H       -1.3505262413    4.8732850013    8.0068857011
H       -2.2655861344    3.6982747197    7.0666544946
H       -2.7658398556    0.1917809155    3.4880477659
30   
torsion grid (-30,)
C        1.0679994223    1.8625479231    0.8221413040
C        0.1342855674    0.7967243359    0.8154521517
C        1.2106683700    2.6608681815    1.9388134161
C       -0.6528182649    0.5592603735    1.9256534972
C        0.5478274648    3.2066096919    4.2847151348
C        0.4181640919    2.4371477727    3.0968651903
C       -0.5407420546    1.3803060379    3.0774552094
C       -0.2408298623    2.9162373252    5.3763762826
C       -1.3379903633    1.2203114454    4.2633819134
C       -3.1008234423    6.2711081993    6.3591510352
C       -0.1517618709    3.6835925767    6.6724524607
C       -1.8092975994    5.5294452157    5.9974892269
C       -1.4528835414    4.4353414599    7.0098814339
N       -1.1886223442    1.9292963496    5.3493261821
O       -2.2911356851    0.2381986902    4.3328296575
H        1.6813479624    2.0423600815   -0.0569705672
H        0.0464403780    0.1608255930   -0.0610570837
H        1.9372138283    3.4696915120    1.9478194139
H       -1.3398255114   -0.2836777250    1.9105831189
H        1.2722960359    4.0148784392    4.3295172343
H       -3.9505934471    5.5801791053    6.4026354149
H       -3.3378152963    7.0463771087    5.6222255828
H       -3.0186257362    6.7559030518    7.3391405284
H        0.0641776003    2.9710023126    7.4774115268
H        0.6867349255    4.3874967021    6.6243371962
H       -0.9796980892    6.2466744398    5.9290393621
H       -1.9105524208    5.0837761972    5.0005239130
H       -1.3510291576    4.8807645577    8.0079292670
H       -2.2694443466    3.7072255712    7.0689001019
H       -2.6408449317    0.0646620608    3.4449361771
30   
torsion grid (-15,)
C        1.0901077942    1.8191302422    0.8398246725
C        0.1432171741    0.7653635230    0.8246409189
C        1.2340828858    2.6108560989    1.9606025907
C       -0.6492208096    0.5319252555    1.9316922264
C        0.5608593047    3.1677476852    4.2986437514
C        0.4344549282    2.3919902358    3.1149336545
C       -0.5323023423    1.3418309031    3.0911390381
C       -0.2405712085    2.8899786149    5.3842621525
C       -1.3278483918    1.1814227378    4.2798180466
C       -3.1006281919    6.2670308034    6.2790729948
C       -0.1657825733    3.6738560493    6.6712178251
C       -1.8072760796    5.5152985311    5.9458777367
C       -1.4687928184    4.4351213993    6.9791594435
N       -1.1851465588    1.9013064707    5.3601128991
O       -2.2915557569    0.2150094091    4.3556657135
H        1.7088789596    1.9964850735   -0.0359595751
H        0.0467775201    0.1373819572   -0.0565648139
H        1.9671216242    3.4136561877    1.9759301054
H       -1.3512277646   -0.2989409317    1.8964381226
H        1.2885983365    3.9729875828    4.3431100519
H       -3.9536092434    5.5799931778    6.3210451304
H       -3.3245385815    7.0321996550    5.5276414996
H       -3.0298151095    6.7659455198    7.2528586526
H        0.0352253087    2.9712840660    7.4886522857
H        0.6761125576    4.3738456482    6.6255086244
H       -0.9740084038    6.2283275241    5.8779492992
H       -1.8969485013    5.0551987868    4.9544127718
H       -1.3792364001    4.8948710941    7.9718872630
H       -2.2887073862    3.7106946253    7.0374839043
H       -2.4852252511   -0.1229428199    3.4679746332
30   
torsion grid (0,)
C        1.0726303166    1.8385056462    0.8455153331
C        0.0979166496    0.8109452720    0.8122493414
C        1.2398318222    2.6057295959    1.9798186047
C       -0.6917321855    0.5733702578    1.9202259636
C        0.5745836963    3.1503621837    4.3223146571
C        0.4412166688    2.3828473927    3.1341843292
C       -0.5409762614    1.3471152595    3.1004849040
C       -0.2367792046    2.8821369951    5.4030211834
C       -1.3194949109    1.1702476678    4.2989417013
C       -3.0952348453    6.2722328166    6.2420146982
C       -0.1731545717    3.6728188546    6.6863959414
C       -1.8005043766    5.5141878025    5.9291302881
C       -1.4774430329    4.4401332652    6.9736962005
N       -1.1773701219    1.8904445899    5.3794010003
O       -2.2844329479    0.2073936208    4.3789407610
H        1.6899799901    2.0196127240   -0.0304658975
H       -0.0271641167    0.2115590325   -0.0850997837
H        1.9878533402    3.3943318306    2.0050971721
H       -1.4308028716   -0.2235573674    1.8589445529
H        1.3099972979    3.9482632415    4.3708991906
H       -3.9508658647    5.5882021878    6.2786278899
H       -3.3078295559    7.0328450153    5.4827170953
H       -3.0342268280    6.7776803219    7.2131000487
H        0.0156703056    2.9748319751    7.5105583962
H        0.6713534628    4.3699386611    6.6459060738
H       -0.9642194687    6.2241263529    5.8660240782
H       -1.8800996753    5.0475937782    4.9398672065
H       -1.3983998908    4.9062752755    7.9643378323
H       -2.3002064605    3.7184924689    7.0272098063
H       -2.3302004994   -0.2821384219    3.5438554215
30   
torsion grid (15,)
C        1.0551803017    1.8614777482    0.8514974007
C        0.0517534828    0.8624506331    0.8032984330
C        1.2443506198    2.6027986606    1.9996846175
C       -0.7359156601    0.6189025246    1.9116637176
C        0.5858016256    3.1343238698    4.3475632139
C        0.4464646156    2.3764264795    3.1538408825
C       -0.5510676851    1.3562440820    3.1099374362
C       -0.2372172598    2.8723064122    5.4209199301
C       -1.3142802743    1.1586628786    4.3141517454
C       -3.0894029736    6.2786043018    6.2041989744
C       -0.1837641888    3.6699460446    6.7002754798
C       -1.7944608145    5.5128541503    5.9116511154
C       -1.4883674441    4.4443103162    6.9669609305
N       -1.1754472568    1.8774753022    5.3956685610
O       -2.2757830466    0.1897780723    4.3859999437
H        1.6715338617    2.0457384332   -0.0245801274
H       -0.1016883623    0.2938375317   -0.1095608769
H        2.0076375219    3.3762795695    2.0345138812
H       -1.5133682962   -0.1386802141    1.8345123507
H        1.3283175298    3.9252513791    4.4029520714
H       -3.9484945165    5.5986468724    6.2350039775
H       -3.2894898237    7.0351117432    5.4374517865
H       -3.0376593454    6.7901485175    7.1726277950
H       -0.0074610587    2.9765639408    7.5309610332
H        0.6637425673    4.3637150143    6.6648990195
H       -0.9543369203    6.2186934393    5.8538022737
H       -1.8644229143    5.0401978637    4.9245471389
H       -1.4195294370    4.9163733283    7.9555502555
H       -2.3146902810    3.7262783145    7.0152465852
H       -2.1704802107   -0.4294752330    3.6476204606
30   
torsion grid (30,)
C        1.0457619915    1.8720285473    0.8535089861
C        0.0286285772    0.8870819337    0.7966548934
C        1.2482100793    2.6037079459    2.0060053416
C       -0.7599398601    0.6425541102    1.9043169422
C        0.5885904457    3.1279027281    4.3577054753
C        0.4494064871    2.3769951791    3.1591492088
C       -0.5571899421    1.3665800729    3.1076480792
C       -0.2416257661    2.8692981943    5.4262941354
C       -1.3152217128    1.1593376690    4.3118149672
C       -3.0861840190    6.2861592858    6.1898149280
C       -0.1943795071    3.6660777259    6.7064374066
C       -1.7921278377    5.5154371888    5.9065409423
C       -1.4981188856    4.4451758300    6.9635653515
N       -1.1806501908    1.8739858025    5.3960603280
O       -2.2924149203    0.1999545127    4.3613582187
H        1.6620384465    2.0560605604   -0.0226730982
H       -0.1358873528    0.3324525928   -0.1229536539
H        2.0201784537    3.3684154593    2.0439580275
H       -1.5556869769   -0.0948829261    1.8288340632
H        1.3352883951    3.9144924820    4.4196430838
H       -3.9481717458    5.6096157560    6.2137276136
H       -3.2774676961    7.0438237301    5.4219810222
H       -3.0396707119    6.7969917878    7.1588853152
H       -0.0266802940    2.9720814023    7.5383835343
H        0.6557964694    4.3568957642    6.6775097333
H       -0.9488022980    6.2179770638    5.8553925262
H       -1.8566393797    5.0436222619    4.9186697008
H       -1.4350796987    4.9164049787    7.9529370248
H       -2.3275298686    3.7302495300    7.0052147483
H       -2.0621032580   -0.5266477284    3.7615173043
30   
torsion grid (45,)
C        1.0499755624    1.8759493162    0.8462916768
C        0.0264832481    0.8973025848    0.7855181154
C        1.2564854121    2.6032053741    2.0011182530
C       -0.7650344720    0.6515882076    1.8908173143
C        0.5928222079    3.1211262635    4.3544093321
C        0.4549595361    2.3757825350    3.1521217683
C       -0.5570454570    1.3715043920    3.0953597412
C       -0.2417676846    2.8625138273    5.4196390095
C       -1.3164598004    1.1594796700    4.2957199098
C       -3.0798245311    6.2844835436    6.1847362954
C       -0.1966417583    3.6551516679    6.7024563916
C       -1.7870364969    5.5110595778    5.9030613628
C       -1.4991651744    4.4368807875    6.9578145603
N       -1.1840345484    1.8688693565    5.3832304320
O       -2.3102796795    0.2092739956    4.3202364546
H        1.6675959171    2.0594580062   -0.0291110709
H       -0.1402052427    0.3483471177   -0.1371941811
H        2.0326766654    3.3635379931    2.0417647100
H       -1.5680110604   -0.0773959562    1.8220912673
H        1.3421559938    3.9048990313    4.4221646334
H       -3.9437087352    5.6102354134    6.2039872253
H       -3.2666806129    7.0448933422    5.4185467950
H       -3.0348287993    6.7923413094    7.1554414093
H       -0.0331966561    2.9584952424    7.5330615818
H        0.6553431679    4.3439486219    6.6783845060
H       -0.9416310290    6.2114337043    5.8565771151
H       -1.8499620670    5.0423964677    4.9135966905
H       -1.4379551334    4.9050188371    7.9487696927
H       -2.3306434851    3.7240869175    6.9947878449
H       -1.9877988303   -0.6045842751    3.9014784138
30   
torsion grid (60,)
C        1.0436855414    1.8902262622    0.8513885364
C        0.0202008874    0.9109801558    0.7877772706
C        1.2467068729    2.6189555325    2.0060045463
C       -0.7769929731    0.6658668087    1.8888414193
C        0.5739486716    3.1321940195    4.3595939641
C        0.4402733076    2.3920078496    3.1536762599
C       -0.5732484047    1.3897378852    3.0915455876
C       -0.2631220081    2.8701708594    5.4221457430
C       -1.3401967500    1.1775407362    4.2848143291
C       -3.0808824384    6.3085130490    6.1910261399
C       -0.2188421841    3.6560896197    6.7091249067
C       -1.7916267646    5.5282092189    5.9121270728
C       -1.5172309562    4.4456371453    6.9618654638
N       -1.2096288927    1.8796679552    5.3770511239
O       -2.3456448747    0.2318122695    4.2836189212
H        1.6648067761    2.0723711043   -0.0218808153
H       -0.1405806059    0.3604787638   -0.1351519509
H        2.0234854818    3.3785782461    2.0487867406
H       -1.5798641419   -0.0630228592    1.8287536775
H        1.3242273907    3.9146820619    4.4336062077
H       -3.9493367246    5.6399714102    6.2007334333
H       -3.2579988021    7.0749686243    5.4285782212
H       -3.0383466396    6.8098886830    7.1652017005
H       -0.0643950887    2.9544613260    7.5372596913
H        0.6379665168    4.3391526032    6.6928536372
H       -0.9412957258    6.2231687685    5.8750273410
H       -1.8519498710    5.0661667182    4.9194022376
H       -1.4583731196    4.9072658372    7.9560124477
H       -2.3539497238    3.7385460600    6.9898338854
H       -1.9687066132   -0.6395136536    4.0814279881
30   
torsion grid (75,)
C        1.0525899607    1.8944079867    0.8471119796
C        0.0348998660    0.9085154409    0.7807780532
C        1.2455028480    2.6297085786    1.9992322890
C       -0.7701456240    0.6657630770    1.8762033623
C        0.5604817725    3.1396923239    4.3500507356
C        0.4315429174    2.4030631204    3.1417883408
C       -0.5797035881    1.3986414180    3.0756094679
C       -0.2768636730    2.8710021288    5.4110293787
C       -1.3589559058    1.1907867610    4.2593685234
C       -3.0778463546    6.3186558984    6.2043208064
C       -0.2296425250    3.6477469083    6.7034862090
C       -1.7922687450    5.5341608988    5.9202715137
C       -1.5241231880    4.4419801232    6.9616417388
N       -1.2275421480    1.8841578520    5.3573110722
O       -2.3656460650    0.2405824188    4.2362425229
H        1.6791512801    2.0750068329   -0.0226270405
H       -0.1132103832    0.3506568473   -0.1399437000
H        2.0194057333    3.3921966034    2.0440086199
H       -1.5672119899   -0.0693061030    1.8246547471
H        1.3103033219    3.9222725842    4.4294107330
H       -3.9496450268    5.6544332632    6.2078416851
H       -3.2503833537    7.0920440534    5.4478653414
H       -3.0336854128    6.8120150974    7.1825079964
H       -0.0786403071    2.9397011753    7.5268309878
H        0.6304744990    4.3267761978    6.6925132638
H       -0.9384601183    6.2251578501    5.8894182620
H       -1.8541359894    5.0803099826    4.9238825911
H       -1.4634872486    4.8955480758    7.9593923562
H       -2.3645804785    3.7390980867    6.9835746318
H       -1.9727124563   -0.6460218148    4.2755229119
30   
torsion grid (90,)
C        1.0655030677    1.8941649819    0.8392266100
C        0.0558207122    0.8996196396    0.7720176405
C        1.2456376014    2.6382468007    1.9877850980
C       -0.7579987270    0.6605702045    1.8614688163
C        0.5470545836    3.1483374158    4.3362006623
C        0.4241629400    2.4146147619    3.1255894188
C       -0.5832502092    1.4065137685    3.0552409633
C       -0.2891485648    2.8730809242    5.3966564706
C       -1.3774361738    1.2079034741    4.2288589947
C       -3.0763854442    6.3252317205    6.2219980044
C       -0.2387611596    3.6385050474    6.6958261554
C       -1.7939999579    5.5382831659    5.9304373194
C       -1.5298017728    4.4357524552    6.9618549809
N       -1.2450603763    1.8918484961    5.3332452676
O       -2.3742226714    0.2457636818    4.1898034768
H        1.6982760221    2.0722893519   -0.0265724337
H       -0.0776117117    0.3313006744   -0.1445808097
H        2.0160202602    3.4041899143    2.0338322120
H       -1.5466509433   -0.0834953597    1.8171605300
H        1.2963284983    3.9309758493    4.4204599554
H       -3.9508206861    5.6644750370    6.2196910547
H       -3.2460354272    7.1060993465    5.4726219098
H       -3.0300383052    6.8095466010    7.2045955299
H       -0.0898252920    2.9229795009    7.5131444439
H        0.6239520260    4.3142870596    6.6904157102
H       -0.9374888034    6.2261575812    5.9055617057
H       -1.8579639424    5.0936522692    4.9300521309
H       -1.4667388093    4.8802020993    7.9635631603
H       -2.3732850638    3.7363222860    6.9779423438
H       -2.0088212246   -0.6060050416    4.4774761247
30   
torsion grid (105,)
C        1.0810510708    1.8888296519    0.8267320671
C        0.0828827784    0.8825291606    0.7609842306
C        1.2466853808    2.6432965755    1.9707714411
C       -0.7381493566    0.6455473233    1.8454266633
C        0.5368524698    3.1544207292    4.3157006122
C        0.4189813516    2.4208574620    3.1042734928
C       -0.5811346169    1.4056966228    3.0324924210
C       -0.2950384025    2.8708054503    5.3773886337
C       -1.3884027736    1.2167708301    4.1978111344
C       -3.0733510054    6.3224648679    6.2407521609
C       -0.2403819118    3.6253129384    6.6827505558
C       -1.7937742627    5.5350490041    5.9383408875
C       -1.5289113492    4.4231133949    6.9594135633
N       -1.2528743910    1.8917728471    5.3081378238
O       -2.3685207344    0.2405393366    4.1501351177
H        1.7188856463    2.0656672429   -0.0356538929
H       -0.0345411771    0.3020047178   -0.1501404489
H        2.0110690315    3.4152419850    2.0168579673
H       -1.5147610140   -0.1110774226    1.8074130797
H        1.2838989276    3.9388862338    4.4021520040
H       -3.9494101272    5.6638523367    6.2355299972
H       -3.2435184298    7.1100992201    5.4986231382
H       -3.0227797350    6.7982565885    7.2272989060
H       -0.0904295857    2.9028044885    7.4938180765
H        0.6236326311    4.2993705408    6.6807847359
H       -0.9357131591    6.2210712484    5.9167319278
H       -1.8618267746    5.0991657339    4.9344142170
H       -1.4619961893    4.8588431404    7.9647140371
H       -2.3740974388    3.7256109878    6.9719377781
H       -2.0730743115   -0.5253143008    4.6675519443
30   
torsion grid (120,)
C        1.0944359934    1.8870138011    0.8209771988
C        0.1052912699    0.8721384676    0.7551356117
C        1.2476145055    2.6499068810    1.9614284728
C       -0.7226413037    0.6376164581    1.8350867802
C        0.5267691327    3.1643109754    4.3027263410
C        0.4137855764    2.4297585003    3.0906625040
C       -0.5805321692    1.4095561358    3.0159459309
C       -0.3028819735    2.8742362229    5.3640031050
C       -1.3993005507    1.2291167935    4.1744937316
C       -3.0782213813    6.3210224196    6.2598783637
C       -0.2443448981    3.6203995838    6.6738799317
C       -1.7997437573    5.5355747310    5.9478973923
C       -1.5314021867    4.4169502695    6.9606964269
N       -1.2624086694    1.8970084796    5.2897746185
O       -2.3621395921    0.2424537969    4.1227024022
H        1.7376476392    2.0623044124   -0.0377513912
H        0.0012807818    0.2817778412   -0.1512657250
H        2.0078058042    3.4259360624    2.0081326729
H       -1.4894082702   -0.1290253180    1.7999131847
H        1.2721620950    3.9499837737    4.3914000597
H       -3.9544346853    5.6625852897    6.2531350188
H       -3.2508074291    7.1136265144    5.5236320603
H       -3.0243619710    6.7901983341    7.2494184699
H       -0.0913639815    2.8926659907    7.4797963806
H        0.6198273553    4.2941900402    6.6733118238
H       -0.9417153448    6.2216388071    5.9279692334
H       -1.8710101027    5.1062626198    4.9413935461
H       -1.4604686562    4.8461249897    7.9685507929
H       -2.3771199722    3.7200141098    6.9719355597
H       -2.1791672978   -0.3968631777    4.8297980892
30   
torsion grid (135,)
C        1.1036524606    1.8931878898    0.8212067573
C        0.1210983060    0.8726377558    0.7526485172
C        1.2486271175    2.6590740640    1.9610978966
C       -0.7107449837    0.6362941315    1.8295928580
C        0.5196874854    3.1724479217    4.3001424000
C        0.4111574865    2.4373141591    3.0869711343
C       -0.5779120847    1.4130326791    3.0076758532
C       -0.3095029914    2.8767377639    5.3595104074
C       -1.4028235775    1.2340872235    4.1625585790
C       -3.0858029395    6.3199115436    6.2681393557
C       -0.2517048380    3.6178631141    6.6720786007
C       -1.8073310704    5.5356415446    5.9532248026
C       -1.5384016485    4.4137884949    6.9622669140
N       -1.2675692645    1.8979210808    5.2813109032
O       -2.3510187424    0.2421376270    4.1092351246
H        1.7501686323    2.0700581172   -0.0347250616
H        0.0256867488    0.2783357032   -0.1520849886
H        2.0055806645    3.4381359191    2.0097534086
H       -1.4701645555   -0.1376829792    1.7935541178
H        1.2628530048    3.9598209950    4.3911406319
H       -3.9620866275    5.6615349187    6.2593247895
H       -3.2585981011    7.1149978004    5.5346314955
H       -3.0318455089    6.7857493100    7.2592512380
H       -0.0985635248    2.8870475164    7.4752280986
H        0.6125019429    4.2915228349    6.6741039487
H       -0.9494059634    6.2218390286    5.9354182743
H       -1.8784699897    5.1096172053    4.9453464188
H       -1.4666471216    4.8397863072    7.9714195407
H       -2.3845989594    3.7173189205    6.9721157625
H       -2.3099344584   -0.2434390331    4.9498555385
30   
torsion grid (150,)
C        1.1044149104    1.9010259800    0.8154571804
C        0.1257101569    0.8773014057    0.7470142906
C        1.2499242055    2.6638858500    1.9576335437
C       -0.7017906969    0.6337208390    1.8260870310
C        0.5239079001    3.1708863571    4.3000878074
C        0.4169971039    2.4361623335    3.0854572627
C       -0.5673418914    1.4082270944    3.0046860051
C       -0.3030016931    2.8732620667    5.3601599491
C       -1.3870286696    1.2240169595    4.1629153277
C       -3.0917327629    6.3079260756    6.2649373799
C       -0.2503397466    3.6139604109    6.6730673055
C       -1.8108866427    5.5268892399    5.9516676590
C       -1.5397537037    4.4062455889    6.9614490301
N       -1.2560834687    1.8891907208    5.2822092889
O       -2.3254509844    0.2312408848    4.1129607004
H        1.7477185380    2.0830960415   -0.0418273900
H        0.0297641108    0.2852276088   -0.1590620084
H        2.0042413426    3.4455020307    2.0061673174
H       -1.4564849382   -0.1450275054    1.7897217756
H        1.2639564787    3.9610720420    4.3902807797
H       -3.9664252982    5.6473823970    6.2554823998
H       -3.2658283227    7.1022580566    5.5309285363
H       -3.0400932339    6.7743152513    7.2559083768
H       -0.0961023753    2.8836054442    7.4764593199
H        0.6116713549    4.2902943003    6.6765094223
H       -0.9547902991    6.2153296161    5.9345092584
H       -1.8795113462    5.1002874475    4.9438845817
H       -1.4704610488    4.8328422149    7.9705228109
H       -2.3842690246    3.7076199624    6.9708752122
H       -2.4391021010   -0.0867153376    5.0257494735
30   
torsion grid (165,)
C        1.1005120789    1.9096698525    0.8103524988
C        0.1249750222    0.8832740409    0.7418309513
C        1.2523774862    2.6664588678    1.9559648775
C       -0.6919801221    0.6301885870    1.8269922188
C        0.5383669881    3.1642761075    4.3034301033
C        0.4290511677    2.4290762472    3.0886352019
C       -0.5511864369    1.3976648427    3.0089131267
C       -0.2870637061    2.8651950141    5.3638192160
C       -1.3587631701    1.2020262299    4.1738601719
C       -3.0961066553    6.2869121342    6.2557820560
C       -0.2377309505    3.6123183018    6.6730562494
C       -1.8109802914    5.5120703855    5.9446519555
C       -1.5315103936    4.3980893665    6.9595216117
N       -1.2344977232    1.8750130024    5.2897184783
O       -2.2931909387    0.2114221486    4.1273277085
H        1.7365076410    2.0996641276   -0.0506427825
H        0.0231773892    0.2971949703   -0.1674897595
H        2.0039916703    3.4507728252    2.0030289109
H       -1.4437884142   -0.1514858214    1.7910726808
H        1.2744204843    3.9584452865    4.3908529386
H       -3.9669422084    5.6211809606    6.2508314252
H       -3.2759802201    7.0765328200    5.5181010347
H       -3.0460071902    6.7585073401    7.2443563549
H       -0.0773685748    2.8869716582    7.4797597261
H        0.6198696948    4.2942008046    6.6717447235
H       -0.9591233071    6.2055660566    5.9230102317
H       -1.8780412323    5.0801263376    4.9390420195
H       -1.4633980002    4.8299413479    7.9664219974
H       -2.3719780237    3.6946101668    6.9738480345
H       -2.5666514472    0.0615879153    5.0508575275
30   
torsion grid (180,)
C        1.0861523232    1.9291984621    0.8112397178
C        0.1106897905    0.9028077781    0.7426870579
C        1.2479071789    2.6749929553    1.9627537150
C       -0.6933953805    0.6370618700    1.8344961841
C        0.5479903369    3.1584688893    4.3185542615
C        0.4368734205    2.4262530823    3.1018752516
C       -0.5411512068    1.3928898505    3.0223513921
C       -0.2779534575    2.8602137675    5.3787580582
C       -1.3328565810    1.1818589379    4.1954126195
C       -3.1044362100    6.2757108337    6.2381447615
C       -0.2374595688    3.6146822602    6.6841541155
C       -1.8155266357    5.5032519439    5.9367365341
C       -1.5356722331    4.3970570329    6.9600040004
N       -1.2194553577    1.8643560126    5.3068965481
O       -2.2709147574    0.1970443989    4.1473000287
H        1.7128255211    2.1288446584   -0.0544137654
H       -0.0012520434    0.3267375287   -0.1718119401
H        1.9980344784    3.4607324922    2.0092472186
H       -1.4446995248   -0.1451377483    1.7983160632
H        1.2802282483    3.9562694451    4.4044408563
H       -3.9730936857    5.6070753107    6.2342911513
H       -3.2843138003    7.0600506788    5.4948487539
H       -3.0596493424    6.7537146948    7.2238822015
H       -0.0782221942    2.8945704889    7.4956925527
H        0.6173299010    4.3000045020    6.6827731446
H       -0.9659959222    6.1994653954    5.9132523839
H       -1.8775522623    5.0642664077    4.9338440803
H       -1.4741328321    4.8353698519    7.9645253647
H       -2.3732931900    3.6901285441    6.9752710827
H       -2.7013720038    0.2036087248    5.0225071694
