12   
torsion grid (-165,)
C        3.5703187552   -1.1933455172    1.5611623135
C        3.4252346179   -1.5736061835   -1.2158999264
N        3.6879093093   -0.7639598917    3.9704509955
N        3.4976294491   -0.3649605570    2.6350669419
S        3.8974553332   -2.8184908299    1.6761382237
S        3.2627140190   -0.2821067008    0.0538790204
H        2.5509572240   -2.2250712530   -1.2230790151
H        4.3238850486   -2.1628834036   -1.0322874422
H        3.5188679164   -1.0407404959   -2.1651325542
H        4.6089197294   -1.2036700694    4.0305999257
H        3.0172185748   -1.5106206777    4.1656746252
H        3.2954638846    0.6214658584    2.5180761852
12   
torsion grid (-150,)
C        3.5902140586   -1.2045610544    1.5632453479
C        3.3990211661   -1.5746703625   -1.2291579590
N        3.6989714478   -0.7607238696    3.9711175904
N        3.4706045991   -0.3807340851    2.6359985622
S        4.0166939539   -2.8059449294    1.6840712924
S        3.2276902555   -0.3015204014    0.0596945670
H        2.4498286216   -2.0846487929   -1.3980146899
H        4.1562756113   -2.2965877397   -0.9196043117
H        3.7275707313   -1.0570513172   -2.1326125027
H        4.6482934074   -1.1362380680    4.0249172183
H        3.0822514474   -1.5504530400    4.1744947614
H        3.1990006750    0.5888628169    2.5181719279
12   
torsion grid (-135,)
C        3.6013150843   -1.2035772274    1.5695330445
C        3.3786280534   -1.5673141364   -1.2343474329
N        3.7110040531   -0.7469693602    3.9755060902
N        3.4442839715   -0.3864250587    2.6419477158
S        4.1244624522   -2.7758805010    1.6910357136
S        3.1713192676   -0.3154333246    0.0715903250
H        2.4037591863   -1.9272093284   -1.5662435438
H        3.9629526305   -2.3967778222   -0.8293585042
H        3.9175129006   -1.0989601284   -2.0596031922
H        4.6818018896   -1.0643746621    4.0191223965
H        3.1451092035   -1.5712556271    4.1889241720
H        3.1138529986    0.5648951212    2.5247417215
12   
torsion grid (-120,)
C        3.5966154999   -1.2245008012    1.5632960654
C        3.3710691190   -1.5826581717   -1.2456382885
N        3.7351954845   -0.7557972841    3.9657224576
N        3.4334117307   -0.4091628944    2.6359161035
S        4.1965778277   -2.7696423050    1.6774893460
S        3.0687427142   -0.3677405904    0.0772365933
H        2.4252986487   -1.8135463173   -1.7380912175
H        3.7878981676   -2.4861047808   -0.7930378592
H        4.0795678492   -1.1596675514   -1.9593839936
H        4.7195354400   -1.0302271402    3.9950330735
H        3.2090772124   -1.6036003470    4.1883817739
H        3.0647837600    0.5285132902    2.5225174941
12   
torsion grid (-105,)
C        3.5981154395   -1.2260189043    1.5602721857
C        3.3628510187   -1.5945031910   -1.2428714943
N        3.7543936041   -0.7525293813    3.9605594354
N        3.4138613130   -0.4197781217    2.6366283564
S        4.2818517496   -2.7369642486    1.6614592329
S        2.9922531335   -0.4049687706    0.0850934245
H        2.4800921686   -1.6615694550   -1.8812609578
H        3.5786001560   -2.5657177441   -0.7923185941
H        4.2206325198   -1.2501941929   -1.8224973322
H        4.7521974741   -0.9747530208    3.9734000265
H        3.2775347422   -1.6274468886    4.1892055004
H        2.9937369398    0.4969474422    2.5315976657
12   
torsion grid (-90,)
C        3.6102914505   -1.2147759535    1.5514020316
C        3.3506000699   -1.6157703278   -1.2303072977
N        3.7675168532   -0.7559498397    3.9537844890
N        3.3851262242   -0.4334378955    2.6389518332
S        4.3891864196   -2.6807358447    1.6246324791
S        2.9524777810   -0.4239188671    0.0859458443
H        2.5782134689   -1.4950424900   -1.9930405466
H        3.3288765002   -2.6280509362   -0.8252976498
H        4.3305910758   -1.4013119356   -1.6587372826
H        4.7784128510   -0.9088244212    3.9498919595
H        3.3560366890   -1.6644404215    4.1785931660
H        2.8987719901    0.4516572828    2.5506054950
12   
torsion grid (-75,)
C        3.6132460983   -1.2041156525    1.5429990268
C        3.3361174618   -1.6357529367   -1.2156550438
N        3.7848202139   -0.7572689644    3.9458902194
N        3.3604460594   -0.4461629881    2.6413481309
S        4.4751406712   -2.6241789558    1.5858324892
S        2.8963629268   -0.4488881833    0.0897083601
H        2.7194410104   -1.3609486555   -2.0751023890
H        3.1065273127   -2.6518041773   -0.8952847376
H        4.3918284235   -1.5511200754   -1.4753445831
H        4.8027419610   -0.8503986264    3.9227825138
H        3.4317507639   -1.6905591321    4.1686574013
H        2.8214974332    0.4094076596    2.5698351249
12   
torsion grid (-60,)
C        3.6032066184   -1.2026572077    1.5420750862
C        3.3191063862   -1.6448195859   -1.2078454626
N        3.8063726662   -0.7452780230    3.9402842279
N        3.3402242441   -0.4551504442    2.6452896394
S        4.5314875593   -2.5807657442    1.5650389519
S        2.8150446827   -0.4920612108    0.1042811656
H        2.8758376746   -1.2486228242   -2.1248837575
H        2.9373084153   -2.6456549308   -1.0053517924
H        4.4053957265   -1.6734820242   -1.2945807746
H        4.8264102071   -0.7972791208    3.8941107177
H        3.4964967875   -1.6915209345    4.1726578272
H        2.7668725884    0.3785530134    2.5841253736
12   
torsion grid (-45,)
C        3.6046333191   -1.2014286653    1.5461944931
C        3.2964995669   -1.6494125180   -1.2080863813
N        3.8192331128   -0.7264479647    3.9403909035
N        3.3172279291   -0.4672881992    2.6522084600
S        4.6027627735   -2.5299590925    1.5605265508
S        2.7582426745   -0.5307740754    0.1211311428
H        3.0449409299   -1.1427266794   -2.1425310136
H        2.7720134876   -2.6034613343   -1.1416328794
H        4.3705533290   -1.8219988003   -1.1380555795
H        4.8396081060   -0.7289340168    3.8768117622
H        3.5598229541   -1.6852040164    4.1831019531
H        2.7023473308    0.3367535498    2.5970748337
12   
torsion grid (-30,)
C        3.6230291902   -1.1973992561    1.5503558810
C        3.2697362396   -1.6566295777   -1.2137874073
N        3.8236623173   -0.7109537231    3.9446579076
N        3.2959021784   -0.4865695351    2.6600594472
S        4.7005806711   -2.4622818869    1.5618856609
S        2.7315112445   -0.5586772675    0.1343944559
H        3.2385928307   -1.0652458734   -2.1306871106
H        2.6019530591   -2.5158964540   -1.2935835792
H        4.2836257910   -2.0046650556   -1.0106111471
H        4.8414172581   -0.6458089371    3.8736594862
H        3.6298184066   -1.6845052005    4.1895368658
H        2.6272697604    0.2738574763    2.6105011731
12   
torsion grid (-15,)
C        3.6315087617   -1.1911453695    1.5569877969
C        3.2454502468   -1.6597730281   -1.2137979989
N        3.8287609842   -0.6924106998    3.9490058135
N        3.2752697875   -0.5003989763    2.6698432527
S        4.7811823074   -2.3907113580    1.5587714970
S        2.6861692535   -0.5953684811    0.1538421346
H        3.4343934685   -1.0207678125   -2.0778355058
H        2.4766685604   -2.3980267491   -1.4471333879
H        4.1619524902   -2.1683999210   -0.9060816580
H        4.8400865923   -0.5673041802    3.8674351551
H        3.6949455258   -1.6753630794    4.1962451235
H        2.5619824694    0.2188640170    2.6272607848
12   
torsion grid (0,)
C        3.6327109765   -1.2021495894    1.5551652374
C        3.2372112282   -1.6725415446   -1.2184210617
N        3.8476329639   -0.6826355102    3.9414068212
N        3.2661544600   -0.5211224368    2.6704235637
S        4.8411919241   -2.3422770847    1.5413623291
S        2.6222356435   -0.6685418701    0.1712343792
H        3.6198524216   -1.0069471515   -1.9936814045
H        2.4181601668   -2.2793971588   -1.6071199439
H        4.0385849304   -2.3170860210   -0.8482278864
H        4.8508528021   -0.5122027623    3.8433226294
H        3.7622299561   -1.6694804968    4.1943335275
H        2.5222824788    0.1669664638    2.6362371842
12   
torsion grid (15,)
C        3.6198511540   -1.2010228096    1.5613512929
C        3.2269002006   -1.6768118413   -1.2072832126
N        3.8559936979   -0.6607015710    3.9408119943
N        3.2466977374   -0.5281346502    2.6795949429
S        4.8815782040   -2.2815874550    1.5271396539
S        2.5491753970   -0.7385033089    0.1985888631
H        3.7814968055   -1.0074358332   -1.8667215800
H        2.3896009972   -2.1293334750   -1.7408825225
H        3.8959557431   -2.4486217246   -0.8199213313
H        4.8489760911   -0.4464659454    3.8253580274
H        3.8187083366   -1.6496948501    4.1968913315
H        2.4763164185    0.1305412989    2.6552880853
12   
torsion grid (30,)
C        3.6150104200   -1.1731590472    1.5603727414
C        3.2147252914   -1.6903964888   -1.1861330097
N        3.8545306674   -0.6469484005    3.9421073118
N        3.2158098760   -0.5398856468    2.6932794864
S        4.9384158929   -2.1757520470    1.4919967151
S        2.5157676199   -0.7550172175    0.2101226870
H        3.9523301246   -1.0862785971   -1.7165882303
H        2.3807119863   -1.9373626594   -1.8457154519
H        3.6935582557   -2.5954334204   -0.8096383730
H        4.8286493997   -0.3644757079    3.8131448489
H        3.8890220112   -1.6394807488    4.1846779821
H        2.3991788085    0.0608383192    2.6919026742
12   
torsion grid (45,)
C        3.6116775160   -1.1646762436    1.5528523308
C        3.2132025668   -1.7126233545   -1.1717356565
N        3.8697038357   -0.6404646076    3.9323911755
N        3.2003731294   -0.5607031749    2.6977883195
S        4.9848825761   -2.0946957591    1.4479850200
S        2.4751732461   -0.8042716463    0.2204852954
H        4.0864046690   -1.1828808876   -1.5546685294
H        2.4358388356   -1.7653778841   -1.9372903644
H        3.5091047114   -2.7113289289   -0.8503239779
H        4.8246545427   -0.3059692070    3.7853899146
H        3.9620854231   -1.6311372440    4.1674353325
H        2.3543703310   -0.0025404299    2.7161147020
12   
torsion grid (60,)
C        3.6066885237   -1.1585089842    1.5519306831
C        3.2071141452   -1.7292141852   -1.1596958393
N        3.8799919360   -0.6234086354    3.9270542554
N        3.1853316204   -0.5769319630    2.7048502549
S        5.0216017326   -2.0200219870    1.4207047744
S        2.4349034375   -0.8582025428    0.2365817490
H        4.1788578114   -1.2932261131   -1.3921444711
H        2.5203976667   -1.5933704512   -1.9989974731
H        3.3219062302   -2.7891846644   -0.9324275175
H        4.8142218475   -0.2416873317    3.7632141693
H        4.0259978367   -1.6083932368    4.1591255134
H        2.3118303665   -0.0637789691    2.7394909472
12   
torsion grid (75,)
C        3.6015293054   -1.1603935641    1.5614292633
C        3.1900297708   -1.7421754715   -1.1528132714
N        3.8814070407   -0.5944669574    3.9287836881
N        3.1679029150   -0.5925146214    2.7165315315
S        5.0560538915   -1.9507044649    1.4163718202
S        2.3914153868   -0.9315597381    0.2653644960
H        4.2265358201   -1.4168398066   -1.2393624665
H        2.6180896468   -1.4222629651   -2.0274497703
H        3.1413216003   -2.8272155764   -1.0555829706
H        4.7958137548   -0.1749271331    3.7468235637
H        4.0730738924   -1.5694242266    4.1698777541
H        2.2739065561   -0.1164770082    2.7582594780
12   
torsion grid (90,)
C        3.6171596479   -1.1474401599    1.5640929961
C        3.1670644154   -1.7613886624   -1.1545107418
N        3.8782755051   -0.5775864051    3.9335319974
N        3.1560334026   -0.6193623230    2.7270234077
S        5.1178088408   -1.8436291215    1.4076887303
S        2.3805509738   -0.9670552681    0.2814517561
H        4.2475545574   -1.6235030421   -1.1009979626
H        2.7635954775   -1.2608867797   -2.0374262857
H        2.9222033964   -2.8239168378   -1.1872262395
H        4.7597799578   -0.0947351896    3.7465860875
H        4.1387799607   -1.5381095165    4.1677932646
H        2.2304563391   -0.2091497876    2.7798664624
12   
torsion grid (105,)
C        3.6306103539   -1.1451811635    1.5619191962
C        3.1508917978   -1.7787565294   -1.1617560937
N        3.8852911662   -0.5639967576    3.9299284259
N        3.1532827448   -0.6481337862    2.7313603118
S        5.1695077239   -1.7476902947    1.3902610817
S        2.3619174665   -1.0309031148    0.2990728228
H        4.2275231619   -1.8351070979   -0.9872947620
H        2.9396447294   -1.1342544492   -2.0169564877
H        2.7452271741   -2.7767927504   -1.3340149994
H        4.7333082717   -0.0275921185    3.7343194105
H        4.2064156567   -1.5070813970    4.1594105481
H        2.2055362334   -0.2937468243    2.7954179295
12   
torsion grid (120,)
C        3.6298171158   -1.1429308554    1.5646343250
C        3.1398001289   -1.7875241573   -1.1581792400
N        3.8881191524   -0.5438305002    3.9278736345
N        3.1448008914   -0.6676292011    2.7396960059
S        5.1963481223   -1.6610322783    1.3696855105
S        2.3320604595   -1.1064806387    0.3254566600
H        4.1733693846   -2.0352862281   -0.9029278050
H        3.1199997453   -1.0364036557   -1.9492108071
H        2.6052351959   -2.6855729515   -1.4713491038
H        4.7036219696    0.0366212718    3.7201204561
H        4.2618175449   -1.4683003606    4.1533043465
H        2.1804373815   -0.3643754550    2.8172948431
12   
torsion grid (135,)
C        3.5475810919   -1.1992423337    1.5778541360
C        3.5136698318   -1.5368521786   -1.2379362614
N        3.6147886893   -0.7475107755    3.9862929562
N        3.5992487095   -0.3511680422    2.6364295285
S        3.5140544833   -2.8528831285    1.7357625946
S        3.5153074595   -0.2536092080    0.0539382380
H        3.2463357460   -2.4910113134   -0.7779569449
H        4.5014191519   -1.6090093292   -1.6953285049
H        2.7648404539   -1.2578108681   -1.9810274307
H        4.4143750911   -1.3718761199    4.1129225999
H        2.7882574170   -1.3278404508    4.1449599503
H        3.6266523127    0.6525085044    2.4956580046
12   
torsion grid (150,)
C        3.5579222940   -1.1869845733    1.5753276245
C        3.4959766802   -1.5407684205   -1.2250273024
N        3.6280237723   -0.7461602834    3.9852501541
N        3.5710963279   -0.3427262936    2.6387383966
S        3.6246463306   -2.8408613136    1.7207262098
S        3.4566724612   -0.2471120005    0.0541471518
H        3.0211764849   -2.4426313822   -0.8355701133
H        4.5223647225   -1.7618558989   -1.5202938435
H        2.9231121947   -1.1559590539   -2.0711019526
H        4.4656820852   -1.3215851826    4.0973841568
H        2.8406888405   -1.3771679480    4.1497712660
H        3.5361541938    0.6615489379    2.5046404083
12   
torsion grid (165,)
C        3.5752064457   -1.1815297988    1.5652047147
C        3.4728918399   -1.5563273492   -1.2144380201
N        3.6400579220   -0.7589850938    3.9777595007
N        3.5412516234   -0.3471563161    2.6363780929
S        3.7425604688   -2.8300021750    1.6910369100
S        3.4207954207   -0.2484207169    0.0478678124
H        2.8086991220   -2.3727401647   -0.9299839466
H        4.4879204641   -1.9331529531   -1.3429472588
H        3.1140550778   -1.0895425684   -2.1348066618
H        4.5153109571   -1.2784830834    4.0750712559
H        2.8984456885   -1.4428651813    4.1437949296
H        3.4345545865    0.6533224302    2.5128808494
12   
torsion grid (180,)
C        3.5680276578   -1.1875592346    1.5592376648
C        3.4502342065   -1.5704929770   -1.2110555547
N        3.6663382519   -0.7674467851    3.9716517427
N        3.5193083560   -0.3583230784    2.6339120568
S        3.8142424956   -2.8270778424    1.6725716119
S        3.3314955486   -0.2644085345    0.0476922724
H        2.6686907714   -2.3160143437   -1.0634716766
H        4.4295925435   -2.0479955918   -1.1754923827
H        3.3118664802   -1.0607794586   -2.1678700503
H        4.5631563103   -1.2526555282    4.0469108240
H        2.9560608659   -1.4798883327    4.1540760460
H        3.3710000049    0.6374147740    2.5154695400
