19
0 1 C8H7IO3
C                     1.894729639266    -1.112374540248    -0.164797488803
C                     0.807770231589    -0.517494734727     0.469584538228
C                     2.952113311472    -1.666549600798     0.565925387596
C                     0.753956084327    -0.463307374654     1.866238531864
C                     1.812154313721    -1.017014007537     2.638488796249
C                     2.890673519517    -1.607897429721     1.975127876848
C                     4.070662063867    -2.280759175595    -0.187815575611
C                    -1.348912948633     0.662990273099     1.876221666323
O                     4.123642778189    -2.331354364343    -1.407868031329
O                     1.677892228553    -0.920258256777     3.986960956141
O                    -0.251183975077     0.089258299246     2.586363502180
I                     4.448081484804    -2.421178914956     3.210145606962
H                     1.952217615188    -1.162892765462    -1.247882551991
H                     0.005482455823    -0.097676159266    -0.125562840458
H                     4.887391022211    -2.708455712735     0.423403597601
H                    -2.027420306248     1.039301888005     2.641808298433
H                    -1.864071291890    -0.089501752514     1.267966382917
H                    -1.019016059554     1.492087812099     1.239516546046
H                     2.455571015020    -1.330432524655     4.411696498073
