47
1 1 C18FH24INO2
C                    -2.057949793681     0.008911317769     3.469366503261
C                    -3.481735046874     0.008633298646     1.529915859791
C                    -3.158611282126     0.248669039217     4.293074171282
C                    -4.594177681645     0.244466091555     2.340738512534
C                    -2.198037585470    -0.112667072298     2.080302249643
C                    -4.431031061695     0.368701819070     3.723995993491
C                    -1.342273034081     2.104012526702     0.387927864321
C                     1.405922892322    -1.505904877783    -0.194291170056
C                     1.899344276214    -0.113994788503     0.288851242858
C                    -1.150904456842    -1.224216842237     0.010378043535
C                    -0.954163656685    -0.303366462620     1.230091254328
C                    -0.315933606440     1.069168808528     0.836733195725
C                     0.072177125649    -1.232576281092    -0.912754793810
C                     0.825923036663     0.885321982620    -0.184018766167
C                    -3.015210322406     2.641607316928    -1.235191808249
C                     1.123618603455     1.745509492388    -3.202400691018
C                     1.085892014909     0.314151422263    -2.664447954743
C                     1.637519965625     1.766419945743    -4.637671068805
N                     0.254882442229     0.196255332984    -1.415947863531
O                    -1.596253080996     3.121915647206     0.980728887130
O                    -1.951925943293     1.747284061705    -0.787915460310
F                     0.785297684150     0.988509342616    -5.432942229929
I                    -6.114597916775     0.730422705918     4.959648043036
H                    -1.074124373186    -0.085881074413     3.925119375805
H                    -3.639909480710    -0.083699372025     0.459740042907
H                    -3.023853945299     0.337017693421     5.366088759313
H                    -5.580259751897     0.326648476562     1.895015278541
H                     2.126718520667    -1.966128747413    -0.873089622762
H                     1.253723789962    -2.204700614482     0.629826927810
H                     2.014906027231    -0.061546061322     1.372566381476
H                     2.870849408766     0.133707274613    -0.143899296484
H                    -1.334159122867    -2.245510993807     0.356028860974
H                    -2.026804867860    -0.932685708398    -0.574543620567
H                    -0.210402811626    -0.785095908880     1.872488813236
H                     0.127213862772     1.507989449693     1.733128899409
H                    -0.097212520653    -1.877540069009    -1.776782182755
H                     1.235504578440     1.852313148897    -0.476275814720
H                    -3.398310619452     2.199745393790    -2.153720952032
H                    -2.611273741482     3.638493079697    -1.414913269166
H                    -3.789792369127     2.688549674768    -0.469078004510
H                     1.770091710612     2.388068878979    -2.596054604903
H                     0.117412257264     2.180144876286    -3.188462639548
H                     2.085634577892    -0.063406748939    -2.445406161107
H                     0.623376236445    -0.346703435579    -3.400258753603
H                     2.643821923555     1.343823105258    -4.721556499537
H                     1.636512798515     2.782817149615    -5.037929751695
H                    -0.667967676900     0.613830630996    -1.609705014404
