47
1 1 C18FH24INO2
C                    -1.823604274490     0.332794335395     3.451999663930
C                    -3.304905348910     0.309423255636     1.555820692952
C                    -2.884958532644     0.672291911979     4.292874650307
C                    -4.377943061985     0.646587076053     2.383724540459
C                    -2.012185267894     0.150948762446     2.075820817183
C                    -4.165608944044     0.834019215149     3.753489330779
C                    -1.227148949660     2.105809575467     0.076420846415
C                     1.456095347855    -1.492028967593    -0.231646217990
C                     2.009066715464    -0.090101225625     0.146202090492
C                    -1.079897728305    -1.114609043937     0.043347424210
C                    -0.807006575956    -0.128697178244     1.196008294298
C                    -0.159536879942     1.199476950371     0.670529180356
C                     0.105789959353    -1.220712678373    -0.921415392708
C                     0.951160343176     0.907054904363    -0.358948564483
C                    -2.708459459309     3.909205667679     0.474559650692
C                     0.282167163176    -0.251069905638    -3.997099541697
C                     1.111071139735     0.198693225935    -2.794428451224
C                     1.157318333349    -0.370223743311    -5.238589569481
N                     0.310614735168     0.164728637556    -1.522293437787
O                    -1.713517814236     1.920574617193    -1.041353645636
O                    -1.589475098817     3.076345324163     0.895743582732
F                     2.168494039848    -1.309489161770    -4.986492652589
I                    -5.788382984518     1.358329355466     5.013312020389
H                    -0.832115653595     0.210042108564     3.883755630579
H                    -3.500845070022     0.179050104373     0.495681557968
H                    -2.713452235708     0.806006393985     5.355951062775
H                    -5.371569119594     0.757806229542     1.961436411375
H                     2.138912705681    -2.016223741986    -0.903042878548
H                     1.311564107947    -2.134692342798     0.638433682927
H                     2.164816602199     0.026887197735     1.220103441943
H                     2.969620255761     0.098094780774    -0.337469594884
H                    -1.284437330522    -2.105055016391     0.459164737319
H                    -1.967402783882    -0.826811398197    -0.526397723246
H                    -0.046187327795    -0.582701961499     1.837884618946
H                     0.290640385716     1.722333456766     1.516802366960
H                    -0.113975182487    -1.922477744821    -1.725843430994
H                     1.377951511026     1.837729998657    -0.737346968552
H                    -2.824886610861     4.644977333884     1.267140342583
H                    -3.601404737076     3.289283487306     0.383565957117
H                    -2.479299776239     4.386627881324    -0.478813468158
H                    -0.522502269878     0.465922139795    -4.197840821023
H                    -0.180859107251    -1.224667616552    -3.809418493516
H                     1.449543488391     1.229482203109    -2.926163170158
H                     1.987421991687    -0.436156599042    -2.665536435223
H                     1.644516709662     0.576374441421    -5.493072625794
H                     0.578300392463    -0.722448381069    -6.095279503642
H                    -0.602428931189     0.631705337571    -1.693299535257
