
  -OEChem-12102412493D

 20 20  0     0  0  0  0  0  0999 V2000
   -0.1695    0.2307   -0.2203 C   0  0  0  0  0  0  0  0  0  0  0  0
    1.9154   -1.0693   -0.0550 C   0  0  0  0  0  0  0  0  0  0  0  0
    0.7445   -0.4255    1.9642 C   0  0  0  0  0  0  0  0  0  0  0  0
    0.8382   -0.4264    0.5619 C   0  0  0  0  0  0  0  0  0  0  0  0
    2.8991   -1.7229    0.6922 C   0  0  0  0  0  0  0  0  0  0  0  0
    2.8187   -1.7215    2.1077 C   0  0  0  0  0  0  0  0  0  0  0  0
    1.7237   -1.0605    2.7148 C   0  0  0  0  0  0  0  0  0  0  0  0
    3.9868   -2.3733   -0.1133 C   0  0  0  0  0  0  0  0  0  0  0  0
    5.8046   -3.8647   -0.1687 C   0  0  0  0  0  0  0  0  0  0  0  0
   -0.9937    0.7663   -0.8465 N   0  0  0  0  0  0  0  0  0  0  0  0
    4.1288   -2.1612   -1.3061 O   0  0  0  0  0  0  0  0  0  0  0  0
    3.7818   -2.3242    2.8310 O   0  0  0  0  0  0  0  0  0  0  0  0
    4.7586   -3.2177    0.5881 O   0  0  0  0  0  0  0  0  0  0  0  0
    1.5747   -1.0316    4.8425 I   0  0  0  0  0  0  0  0  0  0  0  0
    2.0114   -1.0744   -1.1351 H   0  0  0  0  0  0  0  0  0  0  0  0
   -0.0877    0.0729    2.4491 H   0  0  0  0  0  0  0  0  0  0  0  0
    6.3298   -4.4929    0.5499 H   0  0  0  0  0  0  0  0  0  0  0  0
    6.4776   -3.1198   -0.5987 H   0  0  0  0  0  0  0  0  0  0  0  0
    5.3745   -4.4681   -0.9712 H   0  0  0  0  0  0  0  0  0  0  0  0
    3.5815   -2.2147    3.7822 H   0  0  0  0  0  0  0  0  0  0  0  0
  1  4  1  0  0  0  0
  1 10  3  0  0  0  0
  2  4  1  0  0  0  0
  2  5  2  0  0  0  0
  2 15  1  0  0  0  0
  3  4  2  0  0  0  0
  3  7  1  0  0  0  0
  3 16  1  0  0  0  0
  5  6  1  0  0  0  0
  5  8  1  0  0  0  0
  6  7  2  0  0  0  0
  6 12  1  0  0  0  0
  7 14  1  0  0  0  0
  8 11  2  0  0  0  0
  8 13  1  0  0  0  0
  9 13  1  0  0  0  0
  9 17  1  0  0  0  0
  9 18  1  0  0  0  0
  9 19  1  0  0  0  0
 12 20  1  0  0  0  0
M  END
$$$$
