18
0 1 C7H6INO3
C                     1.715968894283    -1.423221473084     0.052372525662
C                     0.621750667555    -1.083938250313     0.843372469973
C                     3.114632840552    -1.532788233691     2.044835390665
C                     2.950109629590    -1.644036740640     0.660111152190
C                     0.756487858606    -0.964732653817     2.238108450226
C                     2.021012113104    -1.194316064955     2.830074780653
C                    -1.554828199927    -0.398042578693     2.517867555462
N                     4.105657563537    -2.001321455554    -0.166414961281
O                     3.931711331027    -2.093656216475    -1.388073877300
O                     5.187221506834    -2.189947619525     0.402958238097
O                    -0.257406432312    -0.639771628128     3.069531892403
I                     2.248624534929    -1.020587260777     4.930226446302
H                     1.622702612135    -1.517640663038    -1.023042055648
H                    -0.337444755306    -0.912358413621     0.369723332174
H                     4.089825846128    -1.711984904276     2.480943061982
H                    -2.190980827445    -0.158412986923     3.369447452846
H                    -1.939452035205    -1.290025664121     2.011323889105
H                    -1.535621448477     0.449186349580     1.823611481883
