
  -OEChem-12102412493D

 16 16  0     0  0  0  0  0  0999 V2000
    1.8926   -1.0369   -0.1279 C   0  0  0  0  0  0  0  0  0  0  0  0
    2.8923   -1.6594    2.0044 C   0  0  0  0  0  0  0  0  0  0  0  0
    0.7362   -0.4904    1.9652 C   0  0  0  0  0  0  0  0  0  0  0  0
    0.8194   -0.4882    0.5671 C   0  0  0  0  0  0  0  0  0  0  0  0
    1.7964   -1.0965    2.6509 C   0  0  0  0  0  0  0  0  0  0  0  0
    2.9274   -1.6207    0.6079 C   0  0  0  0  0  0  0  0  0  0  0  0
   -1.4123   -0.7663    2.8928 C   0  0  0  0  0  0  0  0  0  0  0  0
   -0.2986    0.1068    2.6247 O   0  0  0  0  0  0  0  0  0  0  0  0
   -0.1937    0.0711   -0.1280 F   0  0  0  0  0  0  0  0  0  0  0  0
    1.7414   -1.1337    3.9992 F   0  0  0  0  0  0  0  0  0  0  0  0
    4.5844   -2.4660   -0.4158 I   0  0  0  0  0  0  0  0  0  0  0  0
    1.9010   -0.9976   -1.2114 H   0  0  0  0  0  0  0  0  0  0  0  0
    3.6847   -2.1082    2.5929 H   0  0  0  0  0  0  0  0  0  0  0  0
   -2.1504   -0.1595    3.4190 H   0  0  0  0  0  0  0  0  0  0  0  0
   -1.1021   -1.6040    3.5271 H   0  0  0  0  0  0  0  0  0  0  0  0
   -1.8415   -1.1427    1.9577 H   0  0  0  0  0  0  0  0  0  0  0  0
  1  4  1  0  0  0  0
  1  6  2  0  0  0  0
  1 12  1  0  0  0  0
  2  5  2  0  0  0  0
  2  6  1  0  0  0  0
  2 13  1  0  0  0  0
  3  4  2  0  0  0  0
  3  5  1  0  0  0  0
  3  8  1  0  0  0  0
  4  9  1  0  0  0  0
  5 10  1  0  0  0  0
  6 11  1  0  0  0  0
  7  8  1  0  0  0  0
  7 14  1  0  0  0  0
  7 15  1  0  0  0  0
  7 16  1  0  0  0  0
M  END
$$$$
