21
0 1 C10H8INO
C                    -1.884853964824     0.669690175180    -0.721134693351
C                    -0.513140738722     0.621255569357    -0.588310948885
C                    -3.896572800048     4.322067018056    -0.920661389268
C                    -0.397845730062     3.056670743016    -0.580279885655
C                    -4.542675260903     3.060164127539    -0.981589821409
C                    -1.808695357467     3.113436587841    -0.716897163959
C                    -2.573526562650     1.909884454355    -0.789405660378
C                    -2.520341765845     4.353383354959    -0.787456716586
C                     0.226815438611     1.828644862050    -0.518250876043
C                    -2.427244116599     6.739083128734    -0.781246472762
N                    -3.935767352636     1.891983706969    -0.921279865133
O                    -1.762736152676     5.475643883313    -0.715642061451
I                     2.343116460290     1.725810373294    -0.313370134446
H                    -2.475236854159    -0.239973472288    -0.777095193963
H                    -0.000907523041    -0.334120458777    -0.537478450616
H                    -4.494678692100     5.223551522636    -0.979839144443
H                     0.164921348020     3.981060037564    -0.526984903571
H                    -5.627425999322     3.036296938854    -1.086525524699
H                    -1.641650352507     7.490883927199    -0.704642303486
H                    -3.130761749175     6.856060195951     0.050703537782
H                    -2.956006891552     6.855412281958    -1.733961977800
