16
0 1 C7ClH6IO
C                     1.910068311685    -1.012549609291    -0.097551934916
C                     0.817119152452    -0.442336669181     0.554776285239
C                     1.778925985471    -1.088827524942     2.694357865623
C                     2.945160325098    -1.620421371514     0.623405251232
C                     0.764136093875    -0.485938426542     1.949494797352
C                     2.869619780849    -1.652634801375     2.024626414620
C                     5.048452234150    -1.314352321503    -0.407007174023
O                     3.987674911450    -2.213933349197    -0.046200827106
Cl                   -0.606259602683     0.222947756463     2.787067538014
I                     4.415390244964    -2.581995604690     3.144669611085
H                     1.968563200712    -1.007204935339    -1.182404307110
H                     0.014651985612     0.022062196970    -0.009020926244
H                     1.716686135783    -1.118275427074     3.776461156916
H                     5.802190001127    -1.920082164880    -0.912376045805
H                     5.486198126984    -0.850669971878     0.484168715072
H                     4.683503847869    -0.534087948726    -1.085869741840
