
  -OEChem-12122420533D

 16 16  0     0  0  0  0  0  0999 V2000
    1.8953   -1.0187   -0.1146 C   0  0  0  0  0  0  0  0  0  0  0  0
    0.7981   -0.4602    0.5492 C   0  0  0  0  0  0  0  0  0  0  0  0
    2.9301   -1.6014    0.6191 C   0  0  0  0  0  0  0  0  0  0  0  0
    0.7365   -0.4872    1.9453 C   0  0  0  0  0  0  0  0  0  0  0  0
    2.8814   -1.6317    2.0187 C   0  0  0  0  0  0  0  0  0  0  0  0
    1.7769   -1.0692    2.6772 C   0  0  0  0  0  0  0  0  0  0  0  0
    5.0208   -1.4078    2.9924 C   0  0  0  0  0  0  0  0  0  0  0  0
    3.8895   -2.2491    2.7221 O   0  0  0  0  0  0  0  0  0  0  0  0
    1.6745   -1.1194    4.7996 I   0  0  0  0  0  0  0  0  0  0  0  0
    1.9419   -1.0071   -1.2001 H   0  0  0  0  0  0  0  0  0  0  0  0
   -0.0138   -0.0084   -0.0139 H   0  0  0  0  0  0  0  0  0  0  0  0
    3.7842   -2.0557    0.1239 H   0  0  0  0  0  0  0  0  0  0  0  0
   -0.1169   -0.0602    2.4625 H   0  0  0  0  0  0  0  0  0  0  0  0
    5.7263   -2.0177    3.5592 H   0  0  0  0  0  0  0  0  0  0  0  0
    4.7263   -0.5371    3.5893 H   0  0  0  0  0  0  0  0  0  0  0  0
    5.4886   -1.0713    2.0589 H   0  0  0  0  0  0  0  0  0  0  0  0
  1  2  1  0  0  0  0
  1  3  2  0  0  0  0
  1 10  1  0  0  0  0
  2  4  2  0  0  0  0
  2 11  1  0  0  0  0
  3  5  1  0  0  0  0
  3 12  1  0  0  0  0
  4  6  1  0  0  0  0
  4 13  1  0  0  0  0
  5  6  2  0  0  0  0
  5  8  1  0  0  0  0
  6  9  1  0  0  0  0
  7  8  1  0  0  0  0
  7 14  1  0  0  0  0
  7 15  1  0  0  0  0
  7 16  1  0  0  0  0
M  END
$$$$
