18
0 1 C8H7IO2
C                     1.708336089822    -1.416682832467     0.051449386602
C                     0.615354015767    -1.081258052410     0.841918476210
C                     3.106804272274    -1.532839331042     2.026692983922
C                     2.963187858052    -1.645610354911     0.634182865895
C                     0.754626700022    -0.966987181572     2.239280768251
C                     2.018939151342    -1.197832384019     2.824280538910
C                     4.133326826980    -2.002684917680    -0.192729430521
C                    -1.556809005478    -0.402738920602     2.527000291560
O                     4.115682931629    -2.125836281713    -1.408221347078
O                    -0.259506265693    -0.644981557687     3.075714169212
I                     2.255260089061    -1.032006084759     4.927078810293
H                     1.608312526908    -1.506508753648    -1.026255754140
H                    -0.347805187824    -0.907488427501     0.375850876183
H                     4.077093429681    -1.709180709568     2.483657603486
H                     5.074667387411    -2.160660624306     0.377119007035
H                    -2.192632606482    -0.166483690817     3.380074506009
H                    -1.942574503546    -1.292671476089     2.017351037615
H                    -1.540730749698     0.446740381385     1.835143560372
