
  -OEChem-12102412493D

 25 25  0     0  0  0  0  0  0999 V2000
    2.7620   -4.9245    4.2834 C   0  0  0  0  0  0  0  0  0  0  0  0
    2.3820   -4.0837    3.2333 C   0  0  0  0  0  0  0  0  0  0  0  0
    1.7987   -5.6084    5.0294 C   0  0  0  0  0  0  0  0  0  0  0  0
    0.0582   -4.6050    3.6508 C   0  0  0  0  0  0  0  0  0  0  0  0
    1.0300   -3.9165    2.9078 C   0  0  0  0  0  0  0  0  0  0  0  0
    0.4501   -5.4372    4.7004 C   0  0  0  0  0  0  0  0  0  0  0  0
   -0.6490   -2.2033    2.0609 C   0  0  0  0  0  0  0  0  0  0  0  0
   -1.6995   -0.3013    3.1752 C   0  0  0  0  0  0  0  0  0  0  0  0
    0.7232   -0.6554    3.4777 C   0  0  0  0  0  0  0  0  0  0  0  0
    0.6111   -3.0180    1.7571 C   0  0  0  0  0  0  0  0  0  0  0  0
   -0.5263   -1.1210    2.8926 N   0  0  0  0  0  0  0  0  0  0  0  0
   -1.7321   -2.5502    1.5818 O   0  0  0  0  0  0  0  0  0  0  0  0
   -1.0364   -6.4664    5.8278 I   0  0  0  0  0  0  0  0  0  0  0  0
    3.8139   -5.0483    4.5274 H   0  0  0  0  0  0  0  0  0  0  0  0
    3.1430   -3.5559    2.6626 H   0  0  0  0  0  0  0  0  0  0  0  0
    2.0932   -6.2576    5.8475 H   0  0  0  0  0  0  0  0  0  0  0  0
   -0.9918   -4.4839    3.4025 H   0  0  0  0  0  0  0  0  0  0  0  0
   -1.9104   -0.2975    4.2516 H   0  0  0  0  0  0  0  0  0  0  0  0
   -1.5285    0.7325    2.8498 H   0  0  0  0  0  0  0  0  0  0  0  0
   -2.5538   -0.7129    2.6408 H   0  0  0  0  0  0  0  0  0  0  0  0
    1.1252    0.2095    2.9319 H   0  0  0  0  0  0  0  0  0  0  0  0
    0.5430   -0.3494    4.5138 H   0  0  0  0  0  0  0  0  0  0  0  0
    1.4729   -1.4433    3.4999 H   0  0  0  0  0  0  0  0  0  0  0  0
    0.3488   -3.6292    0.8898 H   0  0  0  0  0  0  0  0  0  0  0  0
    1.4453   -2.3740    1.4638 H   0  0  0  0  0  0  0  0  0  0  0  0
  1  2  1  0  0  0  0
  1  3  2  0  0  0  0
  1 14  1  0  0  0  0
  2  5  2  0  0  0  0
  2 15  1  0  0  0  0
  3  6  1  0  0  0  0
  3 16  1  0  0  0  0
  4  5  1  0  0  0  0
  4  6  2  0  0  0  0
  4 17  1  0  0  0  0
  5 10  1  0  0  0  0
  6 13  1  0  0  0  0
  7 10  1  0  0  0  0
  7 11  1  0  0  0  0
  7 12  2  0  0  0  0
  8 11  1  0  0  0  0
  8 18  1  0  0  0  0
  8 19  1  0  0  0  0
  8 20  1  0  0  0  0
  9 11  1  0  0  0  0
  9 21  1  0  0  0  0
  9 22  1  0  0  0  0
  9 23  1  0  0  0  0
 10 24  1  0  0  0  0
 10 25  1  0  0  0  0
M  END
$$$$
