
  -OEChem-12122420533D

 21 22  0     0  0  0  0  0  0999 V2000
   -1.8849    0.6697   -0.7211 C   0  0  0  0  0  0  0  0  0  0  0  0
   -0.5131    0.6213   -0.5883 C   0  0  0  0  0  0  0  0  0  0  0  0
   -3.8966    4.3221   -0.9207 C   0  0  0  0  0  0  0  0  0  0  0  0
   -0.3978    3.0567   -0.5803 C   0  0  0  0  0  0  0  0  0  0  0  0
   -4.5427    3.0602   -0.9816 C   0  0  0  0  0  0  0  0  0  0  0  0
   -1.8087    3.1134   -0.7169 C   0  0  0  0  0  0  0  0  0  0  0  0
   -2.5735    1.9099   -0.7894 C   0  0  0  0  0  0  0  0  0  0  0  0
   -2.5203    4.3534   -0.7875 C   0  0  0  0  0  0  0  0  0  0  0  0
    0.2268    1.8286   -0.5183 C   0  0  0  0  0  0  0  0  0  0  0  0
   -2.4272    6.7391   -0.7812 C   0  0  0  0  0  0  0  0  0  0  0  0
   -3.9358    1.8920   -0.9213 N   0  0  0  0  0  0  0  0  0  0  0  0
   -1.7627    5.4756   -0.7156 O   0  0  0  0  0  0  0  0  0  0  0  0
    2.3431    1.7258   -0.3134 I   0  0  0  0  0  0  0  0  0  0  0  0
   -2.4752   -0.2400   -0.7771 H   0  0  0  0  0  0  0  0  0  0  0  0
   -0.0009   -0.3341   -0.5375 H   0  0  0  0  0  0  0  0  0  0  0  0
   -4.4947    5.2236   -0.9798 H   0  0  0  0  0  0  0  0  0  0  0  0
    0.1649    3.9811   -0.5270 H   0  0  0  0  0  0  0  0  0  0  0  0
   -5.6274    3.0363   -1.0865 H   0  0  0  0  0  0  0  0  0  0  0  0
   -1.6417    7.4909   -0.7046 H   0  0  0  0  0  0  0  0  0  0  0  0
   -3.1308    6.8561    0.0507 H   0  0  0  0  0  0  0  0  0  0  0  0
   -2.9560    6.8554   -1.7340 H   0  0  0  0  0  0  0  0  0  0  0  0
  1  2  1  0  0  0  0
  1  7  2  0  0  0  0
  1 14  1  0  0  0  0
  2  9  2  0  0  0  0
  2 15  1  0  0  0  0
  3  5  1  0  0  0  0
  3  8  2  0  0  0  0
  3 16  1  0  0  0  0
  4  6  2  0  0  0  0
  4  9  1  0  0  0  0
  4 17  1  0  0  0  0
  5 11  2  0  0  0  0
  5 18  1  0  0  0  0
  6  7  1  0  0  0  0
  6  8  1  0  0  0  0
  7 11  1  0  0  0  0
  8 12  1  0  0  0  0
  9 13  1  0  0  0  0
 10 12  1  0  0  0  0
 10 19  1  0  0  0  0
 10 20  1  0  0  0  0
 10 21  1  0  0  0  0
M  END
$$$$
