18
0 1 C8H6INO2
C                    -0.427098799729     0.081996236340    -0.159141346436
C                     1.787723598932    -0.993153893951    -0.181360375656
C                     0.719687398972    -0.465960621562     1.939983260332
C                     0.701296363609    -0.465697816284     0.537890208696
C                     2.883505327355    -1.527835505423     0.485788896937
C                     2.909584153983    -1.550252325209     1.902531351800
C                     1.820105481775    -1.004337578039     2.603626950867
C                     5.170481938293    -1.427375424228    -0.169013115550
N                    -1.343674845679     0.528631078622    -0.724207196780
O                     3.991679295947    -2.112519346703     2.495805543704
O                     3.893207058360    -2.088994884930    -0.248008917105
I                     1.852309894457    -1.026849004127     4.735337036118
H                     1.787663997703    -0.999755977625    -1.266235232590
H                    -0.115603794146    -0.053103901485     2.493905871603
H                     5.824504747921    -1.965632786656    -0.856338280029
H                     5.578302817529    -1.472939381269     0.843690113886
H                     5.076455567166    -0.383701733406    -0.491491834445
H                     3.877853277932    -2.080864955522     3.465913288579
