
  -OEChem-12122420533D

 25 25  0     0  0  0  0  0  0999 V2000
    0.4289   -5.5756    4.6256 C   0  0  0  0  0  0  0  0  0  0  0  0
    0.0360   -4.7270    3.5900 C   0  0  0  0  0  0  0  0  0  0  0  0
    1.7722   -5.6666    5.0089 C   0  0  0  0  0  0  0  0  0  0  0  0
    2.3343   -4.0373    3.2912 C   0  0  0  0  0  0  0  0  0  0  0  0
    0.9877   -3.9484    2.9140 C   0  0  0  0  0  0  0  0  0  0  0  0
    2.7145   -4.8910    4.3313 C   0  0  0  0  0  0  0  0  0  0  0  0
   -0.6773   -2.2071    2.1270 C   0  0  0  0  0  0  0  0  0  0  0  0
   -1.6614   -0.2552    3.2141 C   0  0  0  0  0  0  0  0  0  0  0  0
    0.7783   -0.6179    3.3989 C   0  0  0  0  0  0  0  0  0  0  0  0
    0.5669   -3.0297    1.7802 C   0  0  0  0  0  0  0  0  0  0  0  0
   -0.5098   -1.1007    2.9174 N   0  0  0  0  0  0  0  0  0  0  0  0
   -1.7843   -2.5693    1.7184 O   0  0  0  0  0  0  0  0  0  0  0  0
    4.7674   -5.0010    4.8918 I   0  0  0  0  0  0  0  0  0  0  0  0
   -0.3135   -6.1761    5.1449 H   0  0  0  0  0  0  0  0  0  0  0  0
   -1.0094   -4.6619    3.3006 H   0  0  0  0  0  0  0  0  0  0  0  0
    2.0720   -6.3265    5.8164 H   0  0  0  0  0  0  0  0  0  0  0  0
    3.0819   -3.4436    2.7726 H   0  0  0  0  0  0  0  0  0  0  0  0
   -1.8101   -0.1824    4.2981 H   0  0  0  0  0  0  0  0  0  0  0  0
   -1.5069    0.7550    2.8144 H   0  0  0  0  0  0  0  0  0  0  0  0
   -2.5462   -0.6935    2.7560 H   0  0  0  0  0  0  0  0  0  0  0  0
    1.2139    0.1301    2.7217 H   0  0  0  0  0  0  0  0  0  0  0  0
    0.6366   -0.1477    4.3767 H   0  0  0  0  0  0  0  0  0  0  0  0
    1.4856   -1.4344    3.5343 H   0  0  0  0  0  0  0  0  0  0  0  0
    0.2785   -3.6262    0.9112 H   0  0  0  0  0  0  0  0  0  0  0  0
    1.4035   -2.3929    1.4802 H   0  0  0  0  0  0  0  0  0  0  0  0
  1  2  1  0  0  0  0
  1  3  2  0  0  0  0
  1 14  1  0  0  0  0
  2  5  2  0  0  0  0
  2 15  1  0  0  0  0
  3  6  1  0  0  0  0
  3 16  1  0  0  0  0
  4  5  1  0  0  0  0
  4  6  2  0  0  0  0
  4 17  1  0  0  0  0
  5 10  1  0  0  0  0
  6 13  1  0  0  0  0
  7 10  1  0  0  0  0
  7 11  1  0  0  0  0
  7 12  2  0  0  0  0
  8 11  1  0  0  0  0
  8 18  1  0  0  0  0
  8 19  1  0  0  0  0
  8 20  1  0  0  0  0
  9 11  1  0  0  0  0
  9 21  1  0  0  0  0
  9 22  1  0  0  0  0
  9 23  1  0  0  0  0
 10 24  1  0  0  0  0
 10 25  1  0  0  0  0
M  END
$$$$
