16
0 1 C7H7IO
C                     1.895319603063    -1.018650339892    -0.114576539469
C                     0.798095856157    -0.460219742048     0.549216035074
C                     2.930115271946    -1.601405086817     0.619073284874
C                     0.736450632317    -0.487231291136     1.945271693330
C                     2.881384871938    -1.631678272561     2.018689062192
C                     1.776932262704    -1.069168501605     2.677239183945
C                     5.020849387739    -1.407781013429     2.992351195139
O                     3.889522328649    -2.249108377528     2.722135885566
I                     1.674504785308    -1.119407808096     4.799598750217
H                     1.941939527936    -1.007082563109    -1.200110957587
H                    -0.013763581743    -0.008376266691    -0.013931976515
H                     3.784249608269    -2.055681475568     0.123944902303
H                    -0.116856446564    -0.060181519675     2.462489536082
H                     5.726264147075    -2.017659870727     3.559221164057
H                     4.726259318575    -0.537080324142     3.589264353509
H                     5.488642174266    -1.071349955280     2.058923887215
