
  -OEChem-12122420533D

 25 25  0     0  0  0  0  0  0999 V2000
    1.0509   -6.1876    3.8258 C   0  0  0  0  0  0  0  0  0  0  0  0
    0.7413   -5.2717    2.8175 C   0  0  0  0  0  0  0  0  0  0  0  0
    1.7237   -5.7742    4.9792 C   0  0  0  0  0  0  0  0  0  0  0  0
    1.7698   -3.5047    4.1016 C   0  0  0  0  0  0  0  0  0  0  0  0
    1.0981   -3.9249    2.9463 C   0  0  0  0  0  0  0  0  0  0  0  0
    2.0765   -4.4274    5.1026 C   0  0  0  0  0  0  0  0  0  0  0  0
   -0.5703   -2.1922    2.1586 C   0  0  0  0  0  0  0  0  0  0  0  0
   -2.2828   -0.6324    1.3836 C   0  0  0  0  0  0  0  0  0  0  0  0
   -0.3595   -1.1003   -0.0885 C   0  0  0  0  0  0  0  0  0  0  0  0
    0.7511   -2.9278    1.8681 C   0  0  0  0  0  0  0  0  0  0  0  0
   -0.9899   -1.2877    1.2107 N   0  0  0  0  0  0  0  0  0  0  0  0
   -1.1997   -2.3985    3.1942 O   0  0  0  0  0  0  0  0  0  0  0  0
    3.1034   -3.7711    6.8510 I   0  0  0  0  0  0  0  0  0  0  0  0
    0.7695   -7.2320    3.7182 H   0  0  0  0  0  0  0  0  0  0  0  0
    0.2128   -5.6060    1.9278 H   0  0  0  0  0  0  0  0  0  0  0  0
    1.9663   -6.4864    5.7612 H   0  0  0  0  0  0  0  0  0  0  0  0
    2.0407   -2.4596    4.2180 H   0  0  0  0  0  0  0  0  0  0  0  0
   -2.1740    0.4507    1.2561 H   0  0  0  0  0  0  0  0  0  0  0  0
   -3.0072   -0.9999    0.6446 H   0  0  0  0  0  0  0  0  0  0  0  0
   -2.6544   -0.8463    2.3841 H   0  0  0  0  0  0  0  0  0  0  0  0
   -0.8384   -1.7118   -0.8669 H   0  0  0  0  0  0  0  0  0  0  0  0
   -0.4493   -0.0495   -0.3825 H   0  0  0  0  0  0  0  0  0  0  0  0
    0.7016   -1.3433   -0.0596 H   0  0  0  0  0  0  0  0  0  0  0  0
    0.6777   -3.4360    0.9009 H   0  0  0  0  0  0  0  0  0  0  0  0
    1.5535   -2.1880    1.7700 H   0  0  0  0  0  0  0  0  0  0  0  0
  1  2  1  0  0  0  0
  1  3  2  0  0  0  0
  1 14  1  0  0  0  0
  2  5  2  0  0  0  0
  2 15  1  0  0  0  0
  3  6  1  0  0  0  0
  3 16  1  0  0  0  0
  4  5  1  0  0  0  0
  4  6  2  0  0  0  0
  4 17  1  0  0  0  0
  5 10  1  0  0  0  0
  6 13  1  0  0  0  0
  7 10  1  0  0  0  0
  7 11  1  0  0  0  0
  7 12  2  0  0  0  0
  8 11  1  0  0  0  0
  8 18  1  0  0  0  0
  8 19  1  0  0  0  0
  8 20  1  0  0  0  0
  9 11  1  0  0  0  0
  9 21  1  0  0  0  0
  9 22  1  0  0  0  0
  9 23  1  0  0  0  0
 10 24  1  0  0  0  0
 10 25  1  0  0  0  0
M  END
$$$$
