21
0 1 C8H8IN3O
C                     0.657968249076    -0.795731434170     0.941908124157
C                     1.669546712350    -1.342940913930     0.108056891022
C                     3.236884899667    -1.314100628946     1.946123647472
C                     2.208004426562    -0.775843705735     2.760323890181
C                     0.910808077855    -0.507094280536     2.274516710171
C                     2.939680277032    -1.602583194042     0.593466172104
C                     4.364859848673    -1.415136851829     2.844978257734
C                    -1.287798092652     0.301431796029     2.728005683232
N                     4.047407990482    -0.995161867461     4.063393693168
N                     2.735254220369    -0.597684185441     3.999750465517
N                     5.668061882462    -1.798949289107     2.541611191853
O                     0.032768859554     0.013475550587     3.185130479445
I                     4.384435648310    -2.454860097188    -0.720436396396
H                    -0.319208086227    -0.611920989196     0.509590091933
H                     1.426280212614    -1.559166511119    -0.926683775182
H                    -1.822065215490     0.704431775624     3.588951794989
H                    -1.790373781905    -0.607877466753     2.377424140713
H                    -1.272375630314     1.046929744658     1.924133106388
H                     2.277132041532    -0.240990693765     4.824718268522
H                     5.734224041261    -2.527633954811     1.840070485959
H                     6.201111966508    -2.020866922753     3.376406937515
