25
0 1 C10H12INO
C                     1.050885974029    -6.187638141039     3.825821103176
C                     0.741341346308    -5.271716988930     2.817532661623
C                     1.723714355280    -5.774249571406     4.979201802441
C                     1.769844632481    -3.504676736369     4.101596419493
C                     1.098142837760    -3.924920415758     2.946269787455
C                     2.076459370031    -4.427369520529     5.102564832067
C                    -0.570295364752    -2.192208629701     2.158596626806
C                    -2.282776303870    -0.632388309555     1.383631021859
C                    -0.359517144229    -1.100286582267    -0.088540687323
C                     0.751110793717    -2.927846932666     1.868064182658
N                    -0.989873011120    -1.287702560291     1.210674779366
O                    -1.199717773628    -2.398457262637     3.194185024318
I                     3.103389941534    -3.771100083761     6.850958880014
H                     0.769515640605    -7.231969689094     3.718164529422
H                     0.212802773155    -5.605989760783     1.927760187534
H                     1.966319701009    -6.486376880158     5.761174888431
H                     2.040731616104    -2.459581617349     4.218045383729
H                    -2.174003039199     0.450727980381     1.256063345912
H                    -3.007160870268    -0.999862876713     0.644565756694
H                    -2.654359556354    -0.846307879462     2.384092974800
H                    -0.838398791579    -1.711807508200    -0.866939022502
H                    -0.449301064616    -0.049543988803    -0.382495918463
H                     0.701611245216    -1.343289959218    -0.059630879037
H                     0.677722942360    -3.436029291507     0.900918946436
H                     1.553496456683    -2.188024171491     1.770019260960
