47
1 1 C18FH24INO2
C                    -1.852091667067     0.342110060972     3.514018322836
C                    -3.322050500032     0.252452391684     1.610698666328
C                    -2.924335730746     0.678716927666     4.342076383165
C                    -4.405722166741     0.586243538191     2.426035422932
C                    -2.029624038283     0.128267428139     2.140910026854
C                    -4.204905506122     0.805062114295     3.792916118077
C                    -1.274271688135     2.046905992297     0.097326780597
C                     1.481211151336    -1.508976529236    -0.121719558671
C                     1.997655612178    -0.089760811218     0.243593139661
C                    -1.061517821538    -1.169116593265     0.145541682625
C                    -0.814249207476    -0.148997659612     1.274144865525
C                    -0.191648951200     1.178262505875     0.718193341202
C                     0.127282518223    -1.274715974738    -0.816021453705
C                     0.930877515160     0.880657481304    -0.297630710833
C                    -2.769906315780     3.853006825651     0.422027027756
C                     1.044498789221     1.427053398728    -3.476843211028
C                     1.118215153790     0.100752673858    -2.722466790659
C                    -0.309250807367     1.693305768964    -4.131785222638
N                     0.310472820424     0.098822484107    -1.447687219404
O                    -1.765552873008     1.807443213060    -1.008571757740
O                    -1.642670336289     3.046557732595     0.875396914777
F                    -0.241246466278     2.916598212699    -4.794884082901
I                    -5.844044383587     1.322552038801     5.033560102629
H                    -0.861012978590     0.246579699419     3.953547220071
H                    -3.509814729578     0.096926563872     0.552498288474
H                    -2.761382646777     0.837242142491     5.403083680989
H                    -5.398785105714     0.670322774785     1.996217816529
H                     2.177114304859    -2.020367077835    -0.789956184597
H                     1.352803321900    -2.147456091828     0.753910739131
H                     2.125379760534     0.047353597325     1.318669841322
H                     2.967534810708     0.110071574498    -0.216032426340
H                    -1.245081659349    -2.153510561756     0.584992886063
H                    -1.954174110339    -0.915370701975    -0.432186547562
H                    -0.048139854117    -0.571077266415     1.931291895071
H                     0.244498286696     1.731722409885     1.552157685966
H                    -0.083505301575    -1.992075576077    -1.611046917850
H                     1.349955221359     1.808494698761    -0.687540989404
H                    -2.888201462885     4.621889676148     1.182124245363
H                    -3.658224319847     3.222853109746     0.362044695675
H                    -2.546710698003     4.289344064625    -0.552162313863
H                     1.807947735904     1.397239358883    -4.260398584504
H                     1.303739603750     2.269156938792    -2.827523008767
H                     2.148178349927    -0.141846697460    -2.459708847426
H                     0.727973329821    -0.717675260838    -3.333635178735
H                    -1.124416036469     1.764928703196    -3.405033302612
H                    -0.548086696822     0.922159151278    -4.872609329973
H                    -0.614012906087     0.535915620976    -1.629035831451
