22   
torsion grid (-165,)
C        3.9222998896    1.4573146998    0.7102880849
C        5.0095697078    0.6966606763    0.3480425769
C        3.1357563367   -0.2284631907   -0.3807549944
C       -0.1065953301   -1.1879157147   -1.8580337617
C       -1.4285071497   -0.4408655991   -1.9048764967
C        5.2553954463   -1.4657901343   -0.9646126951
C        2.2064799791   -1.1874150972   -1.0627093439
N        2.7593304459    0.8730998204    0.2494543330
N        4.4958225635   -0.3835474784   -0.3548374345
N        0.9092314953   -0.5564372299   -1.2061194161
O        0.0433355177   -2.2924134421   -2.3858485953
H        3.9093182677    2.3830676844    1.2702101848
H        6.0707208365    0.8128230594    0.5174948249
H       -1.4094380531    0.5141580186   -1.3727243468
H       -2.2060189335   -1.0770585078   -1.4736646457
H       -1.6932558418   -0.2617822199   -2.9505985801
H        4.8893803497   -2.4364465517   -0.6186645063
H        6.3037666278   -1.3693548109   -0.6798602471
H        5.1833392746   -1.4272134014   -2.0560002422
H        2.5897188255   -1.4713267990   -2.0501143840
H        2.1159829342   -2.1227522379   -0.4919138270
H        0.7806010198    0.3241687840   -0.7195458179
22   
torsion grid (-150,)
C        3.9405643193    1.4220007995    0.7972771294
C        5.0183076354    0.7234191146    0.3038694986
C        3.1234551415   -0.2805017685   -0.2444085436
C       -0.0783523327   -1.1991150678   -1.8367821849
C       -1.3611706620   -0.4053738476   -2.0177146891
C        5.2337545167   -1.3912722938   -1.0829144675
C        2.1628516306   -1.2586223734   -0.8516333976
N        2.7648870923    0.7900373554    0.4475878113
N        4.4848751095   -0.3662886441   -0.3681861413
N        0.9215376860   -0.5681880173   -1.1572713482
O        0.0592432991   -2.3364302279   -2.2924119287
H        3.9436345420    2.3348377855    1.3783112357
H        6.0847019365    0.8894094272    0.3628025834
H       -1.3317932251    0.5842257117   -1.5535589267
H       -2.1901941853   -0.9773961612   -1.5923961366
H       -1.5553276910   -0.2921503454   -3.0877686581
H        4.9513018040   -2.3888943436   -0.7366262560
H        6.2983683799   -1.2484941914   -0.8938309303
H        5.0571157987   -1.3242792791   -2.1607896757
H        2.5669740005   -1.6912301832   -1.7719275436
H        1.9772240492   -2.1018739849   -0.1708224572
H        0.7714408935    0.3143174094   -0.6811685213
22   
torsion grid (-135,)
C        3.7670780423    1.4269394993    0.6162738266
C        4.7353653174    0.7586261582   -0.1003443184
C        2.8758794776   -0.4355348478   -0.0015878650
C        0.3233412250   -0.9274277141   -1.8864392483
C       -0.9555951555   -0.1777566207   -2.2106835777
C        4.7608346325   -1.4505014056   -1.3474876686
C        1.9084132579   -1.5766007895   -0.1491217517
N        2.6150968469    0.6722481334    0.6771975014
N        4.1561118819   -0.4376691253   -0.4902751663
N        0.5842520700   -1.1126347530   -0.5483217100
O        1.0636020817   -1.3647026076   -2.7681795853
H        3.8363547477    2.3987288533    1.0878719690
H        5.7492833318    1.0158506542   -0.3727701865
H       -1.5610741957    0.0509112822   -1.3296437760
H       -1.5466226677   -0.7758118919   -2.9086331868
H       -0.6927570948    0.7561720407   -2.7159691731
H        4.9705669502   -2.3670850563   -0.7874530762
H        5.7001894558   -1.0622775564   -1.7435179136
H        4.0959392470   -1.6785903357   -2.1843144815
H        2.2453983912   -2.2898180237   -0.9002258729
H        1.8140544735   -2.1065478580    0.8046729683
H        0.1337027079   -0.4788367098    0.1014379161
22   
torsion grid (-120,)
C        3.8183920971    1.3850816030    0.7168389865
C        4.6830228808    0.7564863667   -0.1534509875
C        2.8445330252   -0.4406468901    0.1174574014
C        0.4310193204   -0.9386383492   -1.8732601798
C       -0.8283063242   -0.2286119107   -2.3334605542
C        4.5345579914   -1.3766562446   -1.5181129332
C        1.8489461698   -1.5602004870    0.0163703140
N        2.6790034249    0.6287965195    0.8837495171
N        4.0522515089   -0.4159297476   -0.5302690675
N        0.5637465060   -1.1117199750   -0.5187820749
O        1.2739182459   -1.3535116474   -2.6721255605
H        3.9552751971    2.3285191979    1.2296001361
H        5.6592406384    1.0246078438   -0.5323390977
H       -1.5398271380   -0.0374451510   -1.5257353817
H       -1.3116359761   -0.8336792139   -3.1042190154
H       -0.5437656847    0.7236538947   -2.7908286345
H        4.8781289574   -2.2971721846   -1.0352740508
H        5.3722496492   -0.9337601343   -2.0589660424
H        3.7359099544   -1.6050853774   -2.2276564075
H        2.2137938379   -2.3622701363   -0.6235168391
H        1.6693644433   -1.9734664782    1.0128019744
H        0.0125155385   -0.5180068991    0.0887602800
22   
torsion grid (-105,)
C        3.9619683204    1.3282203211    0.8895988091
C        4.7095353787    0.7771683954   -0.1292576193
C        2.8988939554   -0.4334457249    0.2479634979
C        0.4876896488   -0.9960843614   -1.8612638012
C       -0.7385043006   -0.2846908729   -2.4037288001
C        4.4327159533   -1.2656864076   -1.5985250988
C        1.8467380455   -1.4972432053    0.1337914297
N        2.8385995357    0.5660506441    1.1188293756
N        4.0197706435   -0.3490079337   -0.5388988101
N        0.6184837288   -1.0113232839   -0.4994732717
O        1.3014176911   -1.5451632657   -2.6091022057
H        4.1719740958    2.2202947746    1.4657073022
H        5.6430467945    1.0701670118   -0.5889556775
H       -1.4103900747    0.0851567843   -1.6245942044
H       -1.2852882375   -0.9746253259   -3.0512996486
H       -0.4096137530    0.5560531954   -3.0211992657
H        4.9440307928   -2.1391699026   -1.1802042534
H        5.1205919704   -0.7434608019   -2.2659852421
H        3.5596971870   -1.5822612341   -2.1719867321
H        2.1972126256   -2.3531835021   -0.4420933802
H        1.5909255160   -1.8402808823    1.1390172216
H        0.0606866352   -0.3639374198    0.0431328270
22   
torsion grid (-90,)
C        4.0922774572    1.1384621358    1.0826119792
C        4.7242881832    0.6944939232   -0.0587053428
C        2.9192283835   -0.5160306445    0.3492731520
C        0.4833865861   -1.1676197790   -1.8868252407
C       -0.6866606187   -0.4388199640   -2.5234765810
C        4.2962162211   -1.1879026917   -1.6858590292
C        1.7991413601   -1.5014385910    0.1942343153
N        2.9693631934    0.3800945019    1.3272434705
N        3.9634567371   -0.3594477904   -0.5294815513
N        0.6598214915   -0.9568483054   -0.5490769199
O        1.2121486972   -1.9162578708   -2.5445491266
H        4.3819578838    1.9533195747    1.7337144242
H        5.6256714089    1.0135166705   -0.5634419433
H       -1.2582803714    0.1735609175   -1.8208394408
H       -1.3523853995   -1.1780993875   -2.9764818704
H       -0.3068093056    0.1975166375   -3.3274148661
H        4.9938294164   -1.9832943786   -1.4024571632
H        4.7651234391   -0.5622086747   -2.4486152410
H        3.3892749095   -1.6242085242   -2.1061227964
H        2.1150822534   -2.4080733397   -0.3222342233
H        1.4580718254   -1.7733659266    1.1954175478
H        0.1331541310   -0.2204764090   -0.0971351074
22   
torsion grid (-75,)
C        4.4030670115    1.0451463703    1.3820897198
C        4.9046521129    0.6967001423    0.1473687464
C        3.0543810792   -0.4356676660    0.5818456366
C        0.5821207188   -1.2693020215   -1.7143297475
C       -0.5143271754   -0.5615144153   -2.4910277361
C        4.1900433543   -0.9197025735   -1.6501137754
C        1.8636975243   -1.3324501986    0.4212431207
N        3.2492194133    0.3386675517    1.6416038333
N        4.0351481575   -0.2491505271   -0.3631428708
N        0.8384734006   -0.7783631823   -0.4656836451
O        1.1919504952   -2.2311177080   -2.1896218696
H        4.8055984736    1.7568574603    2.0914785791
H        5.7806296255    1.0161739815   -0.4003692864
H       -0.9444918376    0.2953014263   -1.9651008057
H       -1.3083767684   -1.2818078178   -2.7060177257
H       -0.1063205072   -0.2279797238   -3.4486970599
H        5.1338398584   -1.4727449040   -1.6746666349
H        4.1881997750   -0.1829736465   -2.4591019616
H        3.3645194386   -1.6113680021   -1.8163077947
H        2.1307593347   -2.3095681819    0.0153999511
H        1.4388115212   -1.4765256741    1.4171436565
H        0.3629475145    0.0596059654   -0.1575638692
22   
torsion grid (-60,)
C        4.6042705536    0.9206336767    1.5052305585
C        4.9879009224    0.6783775772    0.2046333513
C        3.1130897241   -0.3982952028    0.6763999573
C        0.6733407733   -1.3818418955   -1.6650747317
C       -0.3327419735   -0.7108340000   -2.5843970491
C        4.0084181889   -0.6821357144   -1.6859469785
C        1.8709895809   -1.2226168914    0.5148515054
N        3.4322005372    0.2524953557    1.7870186140
N        4.0289875241   -0.1678627479   -0.3218443837
N        0.9618815850   -0.7089826523   -0.5097363567
O        1.1956924977   -2.4598696125   -1.9554323200
H        5.1031161788    1.5303935911    2.2475421727
H        5.8326953501    1.0133995795   -0.3813095721
H       -0.6774056004    0.2632403678   -2.2260404009
H       -1.1954896588   -1.3729027165   -2.6981169300
H        0.1198228659   -0.5909467755   -3.5721475626
H        5.0322363416   -0.8724133611   -2.0158572453
H        3.5428329708    0.0384406021   -2.3666972329
H        3.4441637787   -1.6139691886   -1.7308253124
H        2.0983999365   -2.2526359479    0.2292616239
H        1.3719760584   -1.2390278250    1.4866339166
H        0.5226980286    0.1862067658   -0.3399108694
22   
torsion grid (-45,)
C        4.7636242960    0.8073720631    1.5287533216
C        5.0390204781    0.6770298369    0.1862199106
C        3.1536882633   -0.3635171103    0.6978314650
C        0.7329742294   -1.4413994465   -1.6295755718
C       -0.2329863911   -0.8427473956   -2.6376277361
C        3.9017460435   -0.5089820411   -1.7313754503
C        1.8504267229   -1.1010392156    0.5712121963
N        3.5816593166    0.1681378989    1.8346565012
N        4.0011723876   -0.0700480711   -0.3438108261
N        1.0157028656   -0.6587863415   -0.5429918424
O        1.2365069994   -2.5529141007   -1.7969696538
H        5.3418395547    1.3244083031    2.2837262309
H        5.8554811598    1.0288693450   -0.4291552619
H       -0.5618787221    0.1698482366   -2.3874357883
H       -1.1091031619   -1.4931646408   -2.7084076752
H        0.2464891838   -0.8325546541   -3.6199070494
H        4.9050994529   -0.5644077552   -2.1583686741
H        3.3025037325    0.1905975714   -2.3231504940
H        3.4435360792   -1.4971866786   -1.7850039199
H        2.0127054711   -2.1718411502    0.4171676254
H        1.3215415596   -0.9725513534    1.5183130521
H        0.5752113208    0.2486753471   -0.4692597824
22   
torsion grid (-30,)
C        4.8670002812    0.5809027645    1.5655575120
C        5.0671097072    0.5821937453    0.2046071253
C        3.1326414092   -0.3719822840    0.7036285696
C        0.7476835514   -1.4907129363   -1.6118474526
C       -0.1790238784   -0.9751534130   -2.6994987970
C        3.7898676568   -0.3326898548   -1.7645987249
C        1.7599227616   -0.9869563561    0.6044073928
N        3.6541934252   -0.0004516898    1.8642247753
N        3.9471771453   -0.0201924340   -0.3470339863
N        0.9926610875   -0.6232019575   -0.5812414432
O        1.2588847183   -2.6086849389   -1.6718811836
H        5.5174265806    0.9689600076    2.3388990407
H        5.8788809316    0.9386518167   -0.4140932169
H       -0.5165890164    0.0532593738   -2.5425903190
H       -1.0522803564   -1.6311290985   -2.7522087842
H        0.3373183350   -1.0410568623   -3.6607429722
H        4.7684124819   -0.2726702104   -2.2443072807
H        3.1138235236    0.3750677417   -2.2535543191
H        3.4017186915   -1.3442237142   -1.8906862447
H        1.8302505876   -2.0788814098    0.5968345917
H        1.2186535075   -0.6954294026    1.5071085714
H        0.5380231118    0.2799451747   -0.5913028113
22   
torsion grid (-15,)
C        4.9608512037    0.3504205246    1.5768588269
C        5.1075662046    0.4725656159    0.2155891400
C        3.1026926249   -0.3255871695    0.7107362398
C        0.7784900737   -1.5199976349   -1.5488393169
C       -0.1143769709   -1.1364846377   -2.7165055577
C        3.6884765888   -0.1095491655   -1.7749033240
C        1.6689430965   -0.7990322250    0.6532154919
N        3.7063380872   -0.1341065548    1.8743498351
N        3.9075192398    0.0500362030   -0.3394344776
N        0.9455995854   -0.5586658015   -0.5879389905
O        1.3341909640   -2.6155996340   -1.4874340432
H        5.6773389330    0.5883505422    2.3525865320
H        5.9277128543    0.8069682692   -0.4041204014
H       -0.5379757134   -0.1310990290   -2.6387767862
H       -0.9292192224   -1.8620487933   -2.7848251244
H        0.4658308887   -1.2095346623   -3.6404515238
H        4.6314010247    0.0851162229   -2.2883275749
H        2.9392094535    0.5960177485   -2.1427491091
H        3.3707829653   -1.1283407433   -2.0027881769
H        1.6428263437   -1.8782729379    0.8301696312
H        1.1392026029   -0.3198445119    1.4795124402
H        0.4541641240    0.3184634441   -0.6909016460
22   
torsion grid (0,)
C        5.0541289902    0.0677024667    1.4719183292
C        5.1583536857    0.3178463123    0.1246867400
C        3.0965813267   -0.3013949548    0.6408206058
C        0.8302193739   -1.5404167366   -1.5301294099
C       -0.0615591849   -1.3068848855   -2.7379624553
C        3.6050751436    0.1357498352   -1.8370484192
C        1.6179919355   -0.6181033457    0.6292219568
N        3.7668953015   -0.3095713936    1.7827137203
N        3.8952857740    0.0922747152   -0.4069075196
N        0.9139771565   -0.5018485788   -0.6408275910
O        1.4560772401   -2.5865708032   -1.3726442135
H        5.8244085355    0.1396484372    2.2290417406
H        5.9863344389    0.6203311182   -0.5008329925
H       -0.5377634445   -0.3223028470   -2.7528341976
H       -0.8369315158   -2.0775014373   -2.7531380141
H        0.5366148389   -1.4281001013   -3.6451202691
H        4.5095410276    0.4539105635   -2.3578922638
H        2.8092534155    0.8500667473   -2.0575190708
H        3.3197167665   -0.8528937125   -2.2022018460
H        1.4970452772   -1.6434187418    0.9897277895
H        1.1301522862    0.0398351163    1.3528967170
H        0.3505692922    0.3208966062   -0.8020983942
22   
torsion grid (15,)
C        5.2135483241    0.1816347488    1.4162745305
C        5.2068567830    0.4966435918    0.0781756192
C        3.2772772093   -0.4132926035    0.6700364108
C        0.4550995876   -0.6566526619   -1.3071387106
C       -0.1171576331   -1.2761373082   -2.5707067848
C        3.4950295463    0.3791653037   -1.7576666305
C        1.9038706525   -1.0433955557    0.6709345516
N        4.0145353187   -0.3957212795    1.7706808073
N        3.9658475968    0.1030471175   -0.4027482872
N        1.3558366880   -1.4283307273   -0.6224903306
O        0.1440727344    0.4749072886   -0.9388409129
H        6.0085798053    0.3294204392    2.1358743140
H        5.9408740948    0.9574221187   -0.5678895031
H        0.2783639191   -2.2710161616   -2.7945145231
H        0.0899036944   -0.6103415913   -3.4127391033
H       -1.2035316707   -1.3411946879   -2.4655379101
H        4.2394262140    1.0003177896   -2.2583426584
H        2.5488333295    0.9220117494   -1.7309500501
H        3.3691229205   -0.5435918447   -2.3297774702
H        1.9547705680   -1.9219549292    1.3179242206
H        1.1917556627   -0.3459355361    1.1215978773
H        1.5623219214   -2.3543005211   -0.9709066388
22   
torsion grid (30,)
C        5.3093865292   -0.0535898608    1.3246158252
C        5.2541308133    0.3862538759    0.0224193651
C        3.2779692884   -0.3740668877    0.6692121856
C        0.4436272903   -0.6955083400   -1.3714297888
C       -0.0539688628   -1.4420122601   -2.5972779897
C        3.4177703191    0.5978920095   -1.6890475654
C        1.8494717909   -0.8554762454    0.6750793003
N        4.0795378227   -0.5388711289    1.7119790470
N        3.9517033409    0.1691832673   -0.3994682458
N        1.3531041650   -1.3656150309   -0.5977711295
O        0.0657071828    0.4462395154   -1.1099336579
H        6.1586330254   -0.0556235947    1.9957910360
H        5.9932499490    0.8276484511   -0.6315674343
H        0.4060184701   -2.4248279263   -2.7339843180
H        0.1370017415   -0.8297286520   -3.4824789499
H       -1.1371518349   -1.5657741466   -2.5132648632
H        4.1026074302    1.3285569572   -2.1230977271
H        2.4424067858    1.0687492191   -1.5597494428
H        3.3205783675   -0.2464958620   -2.3779571079
H        1.7814226973   -1.6291396197    1.4429622020
H        1.1739353344   -0.0433588492    0.9604198970
H        1.6191797902   -2.3031833043   -0.8672914602
22   
torsion grid (45,)
C        5.3788028157   -0.2738239596    1.2244602220
C        5.2938868758    0.3050143682   -0.0217196394
C        3.2981508213   -0.3643654237    0.6623281298
C        0.4630200951   -0.7359669594   -1.4022387347
C        0.0037927189   -1.5850318472   -2.5751969752
C        3.3874148992    0.7896588350   -1.6052835913
C        1.8349515439   -0.7068293509    0.6774213275
N        4.1341295377   -0.6993111450    1.6355390603
N        3.9585718759    0.2399846010   -0.3807333828
N        1.3520116416   -1.3336533835   -0.5504477270
O        0.0677972952    0.4201002726   -1.2462269687
H        6.2582022209   -0.4109281233    1.8404980937
H        6.0338643634    0.7520579789   -0.6710817634
H        0.4734796902   -2.5718079391   -2.6174313704
H        0.2152745706   -1.0462777247   -3.5025004913
H       -1.0804853801   -1.7105389336   -2.5102136856
H        4.0214918347    1.6060465696   -1.9568107102
H        2.3870465732    1.1803381881   -1.4155111077
H        3.3257275846    0.0262369554   -2.3876407439
H        1.6741965297   -1.3681435772    1.5318510086
H        1.2189670344    0.1858378817    0.8202097541
H        1.6437854457   -2.2833813185   -0.7397653669
22   
torsion grid (60,)
C        5.3339146708   -0.4557748865    1.1647991375
C        5.2601559509    0.2653390740   -0.0065093665
C        3.2421799753   -0.3629345761    0.6490010134
C        0.4537103969   -0.8102204177   -1.4550103923
C        0.0260473406   -1.7569703232   -2.5633314568
C        3.3573320268    0.9729960051   -1.5108673595
C        1.7608695708   -0.5954842373    0.6561540447
N        4.0736894091   -0.8490911509    1.5606338355
N        3.9172591539    0.3223472555   -0.3323850858
N        1.2842824356   -1.3427291061   -0.5077050994
O        0.0764979370    0.3628729640   -1.4255557326
H        6.2149236056   -0.7086762799    1.7405968765
H        6.0140933821    0.7368708099   -0.6217192188
H        0.4745935447   -2.7518288403   -2.4919368943
H        0.2897608774   -1.3119776341   -3.5262811331
H       -1.0625904378   -1.8555140474   -2.5357495288
H        3.9310773044    1.8758522962   -1.7320400387
H        2.3180392401    1.2500767753   -1.3325253312
H        3.3944597613    0.3057709117   -2.3785409332
H        1.5293768723   -1.1409165868    1.5740635224
H        1.2000489333    0.3424035058    0.6644581951
H        1.5826203708   -2.3047059747   -0.6008749708
22   
torsion grid (75,)
C        5.2408351988   -0.6685364157    0.9896543767
C        5.2009697236    0.1858449938   -0.0901829571
C        3.1533387417   -0.3691936524    0.5372126928
C        0.4601114197   -0.9632887836   -1.5778178971
C        0.0172681690   -2.0352630733   -2.5582190705
C        3.3462425256    1.2295330893   -1.4409333048
C        1.6611954871   -0.5133812817    0.5581335921
N        3.9620708273   -1.0118687280    1.3700161713
N        3.8617344677    0.3712494741   -0.3790288236
N        1.1524490727   -1.4049748878   -0.4862932136
O        0.2001001548    0.2286506306   -1.7637538618
H        6.1103228026   -1.0494477820    1.5099449877
H        5.9776497201    0.6738419570   -0.6629306563
H        0.3418285494   -3.0433203442   -2.2857228800
H        0.4075423311   -1.7872954848   -3.5487350853
H       -1.0741044396   -2.0181818097   -2.6222190536
H        3.6593276983    2.2645194530   -1.2734151043
H        2.2577529857    1.1840504774   -1.4672496421
H        3.7271755829    0.8950008406   -2.4105227687
H        1.3950204665   -0.9169075653    1.5376433030
H        1.1495121551    0.4416140091    0.4278376477
H        1.4042454224   -2.3827242802   -0.4241505579
22   
torsion grid (90,)
C        4.2934493439    1.6287667138    0.3430917431
C        4.6079513463    0.3197388882    0.6375260755
C        3.2984327511    0.4216412313   -1.1414442135
C        0.4601668510   -1.3471157576   -1.5540034462
C       -0.9687797698   -1.3184684635   -1.0413877463
C        4.0677261058   -1.9015594605   -0.4340178872
C        2.4029463851    0.0227371413   -2.2766376587
N        3.4769785814    1.6817638856   -0.7643541681
N        3.9602891670   -0.4497997985   -0.3109625529
N        1.0038902597   -0.1349448191   -1.8704894926
O        1.0763464523   -2.4084808432   -1.6880625443
H        4.6074500196    2.5251945231    0.8623809179
H        5.2231386291   -0.1265582916    1.4065447555
H       -1.4038697330   -0.3159611873   -1.0078267084
H       -0.9890289157   -1.7517153131   -0.0375799430
H       -1.5825483339   -1.9533347726   -1.6855698233
H        3.1791541969   -2.3016513892   -0.9238023528
H        4.1393352656   -2.3388833347    0.5643737291
H        4.9613214782   -2.1750524250   -1.0052592729
H        2.4551805045    0.8109724103   -3.0306867675
H        2.7114022414   -0.9167654442   -2.7356890095
H        0.5130633203    0.7066287874   -1.5970879858
22   
torsion grid (105,)
C        4.0742549778    1.5798515674    0.5418002729
C        4.5558086581    0.3020833985    0.7315333645
C        3.2315019518    0.3784547087   -1.0367106982
C        0.4389348748   -1.2442901801   -1.4189758585
C       -1.0097692545   -1.1330834834   -0.9799004924
C        4.2376918463   -1.8903210277   -0.4935269550
C        2.4277204936   -0.0364656863   -2.2340066875
N        3.2532889766    1.6177703955   -0.5627276546
N        4.0077600248   -0.4635739638   -0.2810213094
N        0.9922660409   -0.1122708827   -1.9520866712
O        1.0667542951   -2.3019153005   -1.3181613449
H        4.2753114246    2.4645339922    1.1323200871
H        5.2201448302   -0.1242227574    1.4701367218
H       -1.4638545840   -0.1657020644   -1.2106667417
H       -1.0614794990   -1.3038983469    0.0992517739
H       -1.5846033195   -1.9249173849   -1.4664912359
H        3.3087170085   -2.3699859158   -0.8068404570
H        4.5634498447   -2.3372596179    0.4474962371
H        5.0159873891   -2.0511772365   -1.2470441612
H        2.5743019936    0.7048178160   -3.0230599268
H        2.7399750168   -1.0086224269   -2.6141624787
H        0.5180434600    0.7694495150   -1.8025124782
22   
torsion grid (120,)
C        3.8769662675    1.4869629167    0.6158305719
C        4.5290270471    0.2766053097    0.7157121725
C        3.1425476859    0.2739743941   -1.0060048360
C        0.3723795268   -1.2154076827   -1.3820764215
C       -1.0809176332   -1.0280505332   -0.9888311728
C        4.3803215779   -1.8941369722   -0.5882911156
C        2.4062163510   -0.1674003740   -2.2379967737
N        3.0201731434    1.4775051864   -0.4629901649
N        4.0549924088   -0.4943706857   -0.3308578592
N        0.9561694716   -0.1666071268   -2.0465175454
O        0.9848115638   -2.2571773732   -1.1363043734
H        3.9803132539    2.3560851660    1.2527624925
H        5.2633677867   -0.1007595955    1.4134124862
H       -1.5268336466   -0.1156324968   -1.3936599572
H       -1.1456372761   -1.0022133818    0.1030481071
H       -1.6529438892   -1.8928645709   -1.3331736949
H        3.4600532293   -2.4614516249   -0.7455681496
H        4.9014853419   -2.2991278278    0.2804858297
H        5.0316277666   -1.9913218434   -1.4628621174
H        2.6345952491    0.5180005649   -3.0589599544
H        2.7008974864   -1.1709621628   -2.5411642922
H        0.5192748606    0.7435136561   -1.9671870286
22   
torsion grid (135,)
C        3.7881445288    1.4302748291    0.6769628166
C        4.5927932238    0.3126695251    0.7124819848
C        3.1322089444    0.1687706943   -0.9426453584
C        0.2655901209   -1.2005913134   -1.4018932138
C       -1.1706999714   -0.8741512320   -1.0368016426
C        4.6577064874   -1.8266393818   -0.6496359467
C        2.4118580521   -0.3274025331   -2.1652293508
N        2.8861285183    1.3337107040   -0.3610053495
N        4.1673140131   -0.4904141917   -0.3328531324
N        0.9653788696   -0.1958187672   -2.0293915081
O        0.7612848027   -2.3045586042   -1.1734505975
H        3.8099822594    2.2903614834    1.3337375121
H        5.3978015793    0.0137995129    1.3690249483
H       -1.5041359449    0.0976481870   -1.4103814808
H       -1.2645009448   -0.8890627632    0.0530386010
H       -1.8215464956   -1.6562773511   -1.4351102600
H        3.8213872878   -2.5273058237   -0.7130502523
H        5.3281406807   -2.1541538358    0.1461026846
H        5.2097228279   -1.8304345137   -1.5946334608
H        2.7289384492    0.2496270300   -3.0404207229
H        2.6284035370   -1.3776477745   -2.3562323725
H        0.6271189272    0.7508429404   -1.9016103938
22   
torsion grid (150,)
C        4.0375218401    1.5417791457    0.6501140477
C        5.0176665425    0.5776764875    0.5963654973
C        3.2923784663    0.0036276103   -0.6654085762
C        0.0040144706   -1.1835336988   -1.8498468347
C       -1.4005288679   -0.7094074176   -1.5169333125
C        5.1995453108   -1.6542761934   -0.5982947027
C        2.4064721659   -0.7923765674   -1.5763645224
N        2.9660644614    1.1733129109   -0.1372743736
N        4.5288061738   -0.4101151008   -0.2455790360
N        1.0203894707   -0.4855176780   -1.2679739295
O        0.2136775296   -2.1465235979   -2.5907327978
H        4.0417574539    2.4706202180    1.2052073580
H        5.9904372557    0.4993004053    1.0608967320
H       -1.4245447342    0.1108142007   -0.7942214803
H       -1.9710488951   -1.5536564700   -1.1214446593
H       -1.8895320933   -0.3861211794   -2.4402877856
H        4.6734967543   -2.5155551421   -0.1752471407
H        6.2145090958   -1.6346562604   -0.1995615582
H        5.2559659416   -1.7690381513   -1.6839374810
H        2.6251119331   -0.5702936028   -2.6308405727
H        2.5709040356   -1.8667601585   -1.4492326239
H        0.8555057259    0.3679037459   -0.7460642532
22   
torsion grid (165,)
C        3.9560036995    1.5720870719    0.5886372610
C        4.9943495976    0.6799096881    0.4549675103
C        3.2049057115   -0.0417175055   -0.6289518648
C       -0.0877877317   -1.1512377808   -1.8717636032
C       -1.4720623924   -0.5624930862   -1.6596910892
C        5.2233464370   -1.5512995623   -0.7406706357
C        2.3117966424   -0.9181124806   -1.4549802081
N        2.8445949548    1.1119386628   -0.0889980658
N        4.5023109270   -0.3565675477   -0.3251296217
N        0.9411191954   -0.4773468802   -1.2861857114
O        0.0954037030   -2.1793533340   -2.5277698433
H        3.9436681130    2.5092365122    1.1292932305
H        6.0086870960    0.6792577788    0.8282754679
H       -1.4744549931    0.3314105477   -1.0299863216
H       -2.1110776943   -1.3237968441   -1.2045429496
H       -1.9004799284   -0.3143133136   -2.6347377777
H        4.7636441243   -2.4501155536   -0.3185648503
H        6.2526388486   -1.4868340356   -0.3860304837
H        5.2352471033   -1.6371640259   -1.8310145131
H        2.5974810826   -0.8839722213   -2.5161578009
H        2.4008713966   -1.9680551015   -1.1514325497
H        0.8075695468    0.3981612416   -0.7918113215
22   
torsion grid (180,)
C        3.9300660097    1.5050678736    0.6431309088
C        5.0017688261    0.6751775156    0.4102252596
C        3.1630652252   -0.1552180214   -0.4991797159
C       -0.1131551960   -1.1720096109   -1.8576311531
C       -1.4666156560   -0.4865170344   -1.7802353453
C        5.2525850231   -1.5245131146   -0.8401382662
C        2.2541957771   -1.0814358035   -1.2503168100
N        2.7884730815    0.9785994891    0.0716239873
N        4.5000744284   -0.3911307625   -0.3224263622
N        0.9161421210   -0.5267883409   -1.2422249761
O        0.0469073210   -2.2461066843   -2.4422370575
H        3.9133476453    2.4412390239    1.1853021402
H        6.0444975445    0.7339835344    0.6886602577
H       -1.4508349831    0.4478947605   -1.2125948677
H       -2.1818756572   -1.1736851076   -1.3203925413
H       -1.8147235122   -0.2818791533   -2.7964244613
H        4.7853898256   -2.4659199337   -0.5377493049
H        6.2652376478   -1.4950012879   -0.4361787136
H        5.3087963802   -1.4913834408   -1.9327535733
H        2.5995492712   -1.2192020632   -2.2838908526
H        2.2505295580   -2.0822447278   -0.7976062141
H        0.7972650324    0.3564787782   -0.7576327285
