23   
torsion grid (-165,)
C        2.1846024055   -1.3810643110   -0.8647449206
C        1.0531818128   -0.8684457528    0.0462060926
C        0.8824944875   -1.8278337342    1.2380721381
C        1.4451346307    0.5282258609    0.5659000556
C       -0.2524238976   -0.8088630754   -0.7876339897
C       -1.4170139486   -0.0025613941   -0.1971705889
C       -2.6889187915   -0.1195468463   -1.0459623366
H        2.3733637097   -0.6822840567   -1.6876400804
H        1.9306136368   -2.3536790572   -1.3031892693
H        3.1192497166   -1.5013604101   -0.3045028374
H        0.0698121879   -1.5084365211    1.8993858120
H        0.6565135892   -2.8443403706    0.8953555283
H        1.7982275800   -1.8731023344    1.8388948493
H        0.7270202289    0.9079261294    1.2993140065
H        2.4267674688    0.4944054399    1.0524800312
H        1.5047644912    1.2540297797   -0.2539104178
H       -0.0146311281   -0.3823880379   -1.7725055891
H       -0.5872475641   -1.8374737999   -0.9802253870
H       -1.1339571937    1.0527621504   -0.1178561111
H       -1.6337322148   -0.3414722176    0.8237966809
H       -3.5066313804    0.4769930815   -0.6268791659
H       -2.5128314449    0.2290552588   -2.0704838644
H       -3.0302864852   -1.1595196819   -1.1058258031
23   
torsion grid (-150,)
C        2.2003543749   -1.2368783710   -0.9221277888
C        1.0571987608   -0.8282131296    0.0261199252
C        0.9922725596   -1.7946016473    1.2220410951
C        1.3670130492    0.5909144724    0.5441961508
C       -0.2844750836   -0.8760675180   -0.7626202748
C       -1.3882255359    0.0982523329   -0.3293056667
C       -2.6857308386   -0.1148140246   -1.1183166191
H        2.3095315992   -0.5118736842   -1.7363347600
H        2.0114743054   -2.2193509557   -1.3718770462
H        3.1568551274   -1.2927334367   -0.3890129142
H        0.1500679373   -1.5518640253    1.8805599274
H        0.8661102553   -2.8299807247    0.8849783128
H        1.9083478156   -1.7457835289    1.8222217278
H        0.6354399526    0.9279922980    1.2849344318
H        2.3534383952    0.6111912818    1.0217536670
H        1.3806794494    1.3217108729   -0.2726212103
H       -0.0720484754   -0.6730803066   -1.8215138027
H       -0.6732251776   -1.9023728822   -0.7317617563
H       -1.0475341907    1.1297445479   -0.4673295575
H       -1.5965647457   -0.0167960740    0.7427085017
H       -3.4605899293    0.5975528625   -0.8145303201
H       -2.5183897411    0.0130651542   -2.1943851447
H       -3.0815944274   -1.1253668371   -0.9643588245
23   
torsion grid (-135,)
C        2.1576155822   -1.2079315101   -0.9410784971
C        1.0282304037   -0.9039137050    0.0618006733
C        1.0518400689   -1.9355229410    1.2043881548
C        1.3005888883    0.4930215126    0.6574610243
C       -0.3466543979   -0.9834460726   -0.6830762261
C       -1.3708220623    0.1298585626   -0.4221214172
C       -2.6722806149   -0.0979623736   -1.2004807547
H        2.1873937196   -0.4526790667   -1.7345910851
H        2.0142270851   -2.1862266056   -1.4156381310
H        3.1363692136   -1.2167930562   -0.4467508680
H        0.2334724025   -1.7550257290    1.9116193747
H        0.9402628118   -2.9549789272    0.8172749410
H        1.9934160033   -1.8894366277    1.7641681864
H        0.5580275375    0.7721236025    1.4112985865
H        2.2835776079    0.5068233007    1.1421350120
H        1.3052431491    1.2696252941   -0.1149252867
H       -0.1574282436   -0.9970108118   -1.7646445877
H       -0.8143679426   -1.9505153054   -0.4594988012
H       -0.9482981669    1.1007282680   -0.7023313529
H       -1.6003746706    0.1914983937    0.6493711286
H       -3.3941396834    0.7052116785   -1.0161480310
H       -2.4850151319   -0.1373359509   -2.2801009790
H       -3.1449921840   -1.0445259053   -0.9135218846
23   
torsion grid (-120,)
C        0.9584981775   -2.6370738421    0.8650374630
C        0.8999221708   -1.1189373903    0.6059055647
C        1.2368947197   -0.3766223262    1.9139170741
C        1.9740241500   -0.7644580013   -0.4413170028
C       -0.5541039802   -0.7318376143    0.1585998521
C       -0.7394370732   -0.0851949565   -1.2215872703
C       -2.2121517543    0.2312366706   -1.5090317091
H        0.7239611797   -3.1996722940   -0.0464584949
H        0.2369940868   -2.9330933729    1.6354043989
H        1.9552816478   -2.9454457219    1.2021510171
H        1.2087954291    0.7095435194    1.7665045092
H        0.5188976562   -0.6253175423    2.7040784550
H        2.2381451187   -0.6402900502    2.2749007854
H        2.0056416368    0.3099795646   -0.6484475435
H        2.9639339463   -1.0569061814   -0.0728210424
H        1.8100225498   -1.2858283529   -1.3897361638
H       -1.1843982108   -1.6292742953    0.1934961947
H       -0.9824581649   -0.0504339091    0.9043748758
H       -0.3553793991   -0.7490154947   -2.0050603743
H       -0.1540265032    0.8393105198   -1.2875852532
H       -2.3368867875    0.6917003736   -2.4952172712
H       -2.8241893464   -0.6780773711   -1.4850923362
H       -2.6210213748    0.9230493681   -0.7632093070
23   
torsion grid (-105,)
C        0.8258573699   -2.5648970456    0.7002879375
C        0.7753980405   -1.0314563733    0.5504958513
C        1.1181836308   -0.4071543993    1.9188363555
C        1.8378837920   -0.5813657694   -0.4678748810
C       -0.6774418887   -0.6011542947    0.1588792157
C       -0.9287215093   -0.1823280514   -1.2963616287
C       -2.3972262620    0.1855361243   -1.5404398136
H        0.5412552458   -3.0638741662   -0.2342900706
H        0.1378299826   -2.9036954797    1.4828465640
H        1.8333335657   -2.9061719428    0.9660916758
H        1.1378236475    0.6873094550    1.8583890466
H        0.3757101423   -0.6867695554    2.6754967056
H        2.1002474917   -0.7420905352    2.2735422511
H        1.8469663163    0.5073350247   -0.5886269327
H        2.8348197710   -0.8822901260   -0.1259999122
H        1.6784844833   -1.0284188170   -1.4539862203
H       -1.3689761260   -1.4124632379    0.4176725485
H       -0.9734484786    0.2465065768    0.7910857647
H       -0.6440465439   -0.9932258104   -1.9792176259
H       -0.2945887077    0.6729061801   -1.5537423986
H       -2.5653930389    0.4934350365   -2.5782555015
H       -3.0580645839   -0.6641302138   -1.3326953039
H       -2.7101537784    1.0124118492   -0.8919230914
23   
torsion grid (-90,)
C        0.9002528940   -2.5397437307    0.6372408386
C        0.8315695402   -1.0008724889    0.5844645698
C        1.1586478436   -0.4625577367    1.9925302427
C        1.8784583308   -0.4603697005   -0.4038298831
C       -0.6159267735   -0.5592738616    0.2218340297
C       -0.9394319442   -0.3930834248   -1.2690405419
C       -2.4147083486   -0.0471232275   -1.5039782691
H        0.6069584014   -2.9866789262   -0.3204041176
H        0.2301077549   -2.9334866492    1.4094215127
H        1.9159700997   -2.8835388905    0.8653153553
H        1.1874891452    0.6332601676    1.9993006274
H        0.4032857260   -0.7815153774    2.7204638039
H        2.1327211277   -0.8268891116    2.3399129501
H        1.8271332476    0.6317725825   -0.4822551441
H        2.8880118195   -0.7207498947   -0.0655806131
H        1.7488108939   -0.8763912500   -1.4077202026
H       -1.3223774187   -1.2688043021    0.6714635951
H       -0.8169129023    0.4065184870    0.7063257577
H       -0.6944249794   -1.3140850263   -1.8146685925
H       -0.3112840512    0.3947211025   -1.6982884186
H       -2.6299494203    0.0872535076   -2.5697055372
H       -3.0720477120   -0.8394628967   -1.1274531411
H       -2.6888437268    0.8810659066   -0.9886300626
23   
torsion grid (-75,)
C        1.0147406540   -2.4761202385    0.4302261146
C        0.9122806305   -0.9420584515    0.5297347252
C        1.2562396420   -0.5250142945    1.9733678888
C        1.9204817429   -0.2868790394   -0.4304115110
C       -0.5377066209   -0.4832020577    0.2311507707
C       -0.9843983678   -0.5127928962   -1.2366413306
C       -2.4637199163   -0.1422874281   -1.3982871168
H        0.7530753695   -2.8361439304   -0.5708296368
H        0.3424699524   -2.9607117975    1.1475066598
H        2.0348062963   -2.8149134848    0.6454461864
H        1.2503289934    0.5658378504    2.0815120220
H        0.5311171637   -0.9356696961    2.6858849841
H        2.2503437461   -0.8855560073    2.2625731117
H        1.8178513029    0.8048871311   -0.4277483670
H        2.9473128643   -0.5256111582   -0.1303079412
H        1.7889218015   -0.6343058167   -1.4599189935
H       -1.2247160961   -1.0970947574    0.8295253165
H       -0.6575807130    0.5460311786    0.5984583106
H       -0.8141812920   -1.5088850459   -1.6642993886
H       -0.3740574459    0.1827079748   -1.8232444760
H       -2.7654820842   -0.1479796080   -2.4514040534
H       -3.1091995199   -0.8474267622   -0.8617880086
H       -2.6654660820    0.8586965491   -0.9989315782
23   
torsion grid (-60,)
C        1.0438758215   -2.4127681534    0.4320685059
C        0.9203677853   -0.8892070664    0.6202984749
C        1.2060140089   -0.5448221704    2.0945291759
C        1.9590703555   -0.1770992316   -0.2664722919
C       -0.5120357117   -0.4061730914    0.2854108444
C       -1.0224009806   -0.6644916512   -1.1383493675
C       -2.4450036103   -0.1301081851   -1.3461185427
H        0.9177256876   -2.7052359427   -0.6151445343
H        0.2902347244   -2.9460749273    1.0236731399
H        2.0309614607   -2.7637132093    0.7545820587
H        1.1324527545    0.5349337832    2.2695182711
H        0.4919108066   -1.0412485475    2.7619619974
H        2.2136899107   -0.8632334529    2.3858427650
H        1.8738610990    0.9123897654   -0.1767548475
H        2.9769771159   -0.4576607121    0.0279267268
H        1.8396729517   -0.4376062209   -1.3229219986
H       -1.2076951160   -0.8770377853    0.9944729489
H       -0.5654096557    0.6735544203    0.4846338114
H       -1.0088034058   -1.7394385160   -1.3524919821
H       -0.3532037108   -0.1948020987   -1.8686392819
H       -2.8000618814   -0.3219312381   -2.3645805467
H       -3.1499224837   -0.6028683885   -0.6522223848
H       -2.4895509822    0.9518709300   -1.1752184562
23   
torsion grid (-45,)
C        1.0314318144   -2.4037599187    0.2256202978
C        0.9187296991   -0.8971663641    0.5226501598
C        1.1887515347   -0.6494655802    2.0174412387
C        1.9795121330   -0.1456009763   -0.3065570856
C       -0.4941763939   -0.3569553183    0.1823993891
C       -1.1045853760   -0.7997990773   -1.1540346961
C       -2.4445350166   -0.1081830658   -1.4335502919
H        0.9535589935   -2.6137410856   -0.8453520925
H        0.2454145383   -2.9714462318    0.7383176240
H        1.9979305225   -2.7905297021    0.5688709825
H        1.0750477001    0.4119607245    2.2677014581
H        0.4912565498   -1.2173870125    2.6440861391
H        2.2069616041   -0.9503841123    2.2904687331
H        1.9660272520    0.9274979523   -0.0828736171
H        2.9859939601   -0.5203788808   -0.0870059255
H        1.8104598644   -0.2660478527   -1.3820423847
H       -1.1837004683   -0.6622616015    0.9825551733
H       -0.4623401561    0.7406079748    0.2185117258
H       -1.2545373124   -1.8849967149   -1.1508953056
H       -0.4113384111   -0.5863834171   -1.9774374440
H       -2.8803413456   -0.4467248374   -2.3799114318
H       -3.1698757067   -0.3175977046   -0.6384594104
H       -2.3237574090    0.9798137871   -1.4913063269
23   
torsion grid (-30,)
C        0.9265576734   -2.4190525869    0.0623113935
C        0.8646923697   -0.9278599822    0.4421868457
C        1.1072960461   -0.7671110684    1.9521626657
C        1.9844778827   -0.1954211244   -0.3276413531
C       -0.5028756813   -0.2801324424    0.0756147733
C       -1.2505408072   -0.8565104108   -1.1341440071
C       -2.5341502830   -0.0760881548   -1.4419590142
H        0.8491264279   -2.5671981320   -1.0185902946
H        0.1233109464   -2.9927501379    0.5399319690
H        1.8790247154   -2.8521651789    0.3889546202
H        1.0310241233    0.2847486637    2.2520943436
H        0.3703099971   -1.3345452074    2.5323466689
H        2.1049610055   -1.1240947170    2.2337924134
H        2.0426419190    0.8582347097   -0.0310589579
H        2.9624671174   -0.6524324585   -0.1362633443
H        1.8081570037   -0.2292017357   -1.4091339502
H       -1.1737113443   -0.3702403956    0.9418576430
H       -0.3524778181    0.7975223499   -0.0689229150
H       -1.5020616745   -1.9060867296   -0.9485665085
H       -0.6031301629   -0.8465789928   -2.0209822229
H       -3.0689863246   -0.5060249371   -2.2959186181
H       -3.2157796478   -0.0835437775   -0.5831595906
H       -2.3136587642    0.9713417208   -1.6784542640
23   
torsion grid (-15,)
C        1.0801116304   -2.2326849588   -0.0730460095
C        0.9444712319   -0.7637951583    0.3721341902
C        1.0638124441   -0.6842456255    1.9037842320
C        2.1085370022    0.0265161160   -0.2634073198
C       -0.4060607379   -0.1111067627   -0.0755455743
C       -1.2290789923   -0.8332581629   -1.1512519761
C       -2.5157019461   -0.0722015133   -1.4931686207
H        1.0544508883   -2.3334439140   -1.1619877888
H        0.2848695057   -2.8615704279    0.3427743822
H        2.0356432361   -2.6415938127    0.2749139109
H        0.9651161213    0.3505731943    2.2521986771
H        0.2804162095   -1.2769382107    2.3906386196
H        2.0341376482   -1.0623783208    2.2469993516
H        2.1101718787    1.0682758083    0.0775675883
H        3.0785286674   -0.4137680874   -0.0038319619
H        2.0264144830    0.0328390794   -1.3568787650
H       -1.0531774020   -0.0082671333    0.8060379224
H       -0.2093124240    0.9146974375   -0.4108654083
H       -1.4860712302   -1.8421888973   -0.8109852062
H       -0.6338527635   -0.9585869729   -2.0648567946
H       -3.1024764430   -0.6001196683   -2.2528707692
H       -3.1495272383    0.0499546400   -0.6068864415
H       -2.2929221957    0.9293045322   -1.8793648022
23   
torsion grid (0,)
C        1.1813418487   -2.1458691301   -0.1562173469
C        0.8796961555   -0.7203532664    0.3469885529
C        0.9035112573   -0.7367282907    1.8879006690
C        1.9933219169    0.2167350008   -0.1599287540
C       -0.5094873168   -0.1729559658   -0.1374469433
C       -1.3772936544   -1.0799402254   -1.0215848508
C       -2.6977867386   -0.4030803987   -1.4086304872
H        1.2096072669   -2.1974185428   -1.2492914359
H        0.4404417958   -2.8704820478    0.1963014211
H        2.1605008898   -2.4715165424    0.2131594957
H        0.7309507972    0.2663122962    2.2951436239
H        0.1235956020   -1.3973821975    2.2848385337
H        1.8689604780   -1.0917953573    2.2675817693
H        1.8435447117    1.2396676777    0.2046127791
H        2.9809237182   -0.1189887492    0.1780867950
H        2.0077935964    0.2511668332   -1.2557825982
H       -1.1053994649    0.1032185095    0.7415020358
H       -0.3479132569    0.7659240486   -0.6818149411
H       -1.5947553460   -2.0198195425   -0.5008115839
H       -0.8328102905   -1.3523443368   -1.9332954559
H       -3.3120634127   -1.0560588654   -2.0382581068
H       -3.2860795923   -0.1462008462   -0.5198397139
H       -2.5187084248    0.5248404533   -1.9644313531
23   
torsion grid (15,)
C        1.0908107875   -2.0713334335   -0.3221046832
C        0.7822258220   -0.6717452027    0.2437174628
C        0.7106269259   -0.7945522639    1.7810311640
C        1.9242358553    0.2895104806   -0.1282400951
C       -0.5743555715   -0.0877125001   -0.2748506742
C       -1.5597425563   -1.0533101194   -0.9476401365
C       -2.8434186607   -0.3419419871   -1.3922080425
H        1.1598803106   -2.0646580999   -1.4157213520
H        0.3300415392   -2.8039023288   -0.0371852296
H        2.0532774037   -2.4262604510    0.0639072856
H        0.5672850259    0.1864744706    2.2485451478
H       -0.1265216635   -1.4347421829    2.0840231208
H        1.6297084407   -1.2307797675    2.1898158372
H        1.7300153217    1.2976396824    0.2563882566
H        2.8804504623   -0.0494992991    0.2877374451
H        2.0377791063    0.3630527063   -1.2162293466
H       -1.0841999288    0.4146442684    0.5564890092
H       -0.3573083532    0.7055678368   -1.0029415236
H       -1.8217509951   -1.8685016409   -0.2609899409
H       -1.0879311053   -1.5234977535   -1.8171724861
H       -3.5357193255   -1.0355727535   -1.8818459359
H       -3.3657066516    0.1038010993   -0.5376198523
H       -2.6224396792    0.4651261002   -2.1007016133
23   
torsion grid (30,)
C        1.1551627387   -2.0345984448   -0.4280994359
C        0.7893923295   -0.6571131729    0.1554541016
C        0.5880452817   -0.8247528185    1.6767619468
C        1.9402225070    0.3325448821   -0.0913053006
C       -0.5178616184   -0.0805796429   -0.4633069248
C       -1.5770103352   -1.0880447413   -0.9301577687
C       -2.8476759269   -0.3939077401   -1.4351772634
H        1.2658894105   -1.9965709870   -1.5183971726
H        0.3999127921   -2.7898766588   -0.1926351398
H        2.1092165474   -2.3788878142   -0.0125014511
H        0.4081449169    0.1427453913    2.1595844699
H       -0.2704767348   -1.4712732894    1.8931126559
H        1.4699550877   -1.2755833087    2.1467990161
H        1.6863031282    1.3310918748    0.2836796782
H        2.8574583059    0.0082712556    0.4142763731
H        2.1595248158    0.4230585634   -1.1615654530
H       -0.9689559112    0.6147867702    0.2562967154
H       -0.2490339716    0.5318676092   -1.3357497634
H       -1.8416497325   -1.7686129415   -0.1100882753
H       -1.1660100387   -1.7141854452   -1.7291186975
H       -3.5900859977   -1.1209831075   -1.7820645462
H       -3.3118988692    0.2065341557   -0.6442143440
H       -2.6236648349    0.2791171430   -2.2712796025
23   
torsion grid (45,)
C        1.2310795588   -1.9700636065   -0.3452131423
C        0.7732585909   -0.6151787812    0.2252394065
C        0.4761541220   -0.7830096659    1.7289999296
C        1.9002763838    0.4187155499    0.0533297902
C       -0.4900690581   -0.0909958175   -0.5049252116
C       -1.6176770903   -1.1011986949   -0.7554171628
C       -2.8570819180   -0.4411599779   -1.3719696612
H        1.3823718930   -1.9156227032   -1.4301552123
H        0.5023147970   -2.7616811222   -0.1467596154
H        2.1816531797   -2.2747666704    0.1076661408
H        0.1965853629    0.1743327286    2.1840714141
H       -0.3436735311   -1.4885235343    1.9018723237
H        1.3556550900   -1.1625300126    2.2620169006
H        1.5877436177    1.4058087208    0.4140990387
H        2.7950706539    0.1252272611    0.6146272963
H        2.1838018040    0.5221956914   -1.0005329449
H       -0.8884853082    0.7611612135    0.0625752967
H       -0.1832199303    0.3161448811   -1.4790835382
H       -1.9020181527   -1.5934179531    0.1831991141
H       -1.2630265378   -1.8935216913   -1.4237013225
H       -3.6475327083   -1.1747571124   -1.5647372074
H       -3.2686178779    0.3267988632   -0.7067336825
H       -2.6128913193    0.0441274828   -2.3243407342
23   
torsion grid (60,)
C        1.3843414721   -1.8487670904   -0.4116199893
C        0.8330665533   -0.5449791334    0.1951392045
C        0.4982453447   -0.7724344226    1.6812485900
C        1.9133200691    0.5485161302    0.0908718817
C       -0.4151767417   -0.0594606875   -0.5816578863
C       -1.6215289895   -1.0064230603   -0.6293161407
C       -2.7937808876   -0.4067993409   -1.4159600049
H        1.5968302867   -1.7278593146   -1.4805526918
H        0.6798896410   -2.6791802270   -0.3008570466
H        2.3176458052   -2.1414458445    0.0831506270
H        0.0736197627    0.1319656014    2.1329678223
H       -0.2219499986   -1.5855721157    1.8166431162
H        1.4003903252   -1.0354217851    2.2455996447
H        1.5603777900    1.4946427203    0.5176996239
H        2.8227503554    0.2571105058    0.6290909567
H        2.1877473944    0.7347114960   -0.9540541496
H       -0.7392621894    0.8968287023   -0.1471125515
H       -0.1107805337    0.1673902980   -1.6133101391
H       -1.9557078211   -1.2411084893    0.3880354751
H       -1.3326399525   -1.9592370482   -1.0878371724
H       -3.6481797946   -1.0918148841   -1.4456885913
H       -3.1341125099    0.5320377863   -0.9635999232
H       -2.5047220265   -0.1885215789   -2.4507086936
23   
torsion grid (75,)
C        1.3917674479   -1.8915545280   -0.4663056631
C        0.7848170074   -0.6383658127    0.1931137502
C        0.4032846090   -0.9471747261    1.6514383858
C        1.8469538050    0.4787902884    0.1822556725
C       -0.4376885180   -0.1450041111   -0.6219210138
C       -1.7320872622   -0.9583568655   -0.4884102983
C       -2.8368201536   -0.4438270328   -1.4193231561
H        1.7201128599   -1.6754786253   -1.4894235562
H        0.6709821178   -2.7153023798   -0.5122421633
H        2.2623620328   -2.2472525583    0.0968800019
H       -0.0935183261   -0.0896461194    2.1208225980
H       -0.2702144758   -1.8068448969    1.7239525472
H        1.2976353564   -1.1779937145    2.2416074353
H        1.4800786342    1.3776946149    0.6912358171
H        2.7641920174    0.1568817916    0.6891326671
H        2.1127894173    0.7602628546   -0.8435256095
H       -0.6582780705    0.8896456595   -0.3228735897
H       -0.1501685139   -0.0962443848   -1.6810968334
H       -2.0883122008   -0.9195639707    0.5469416622
H       -1.5393211592   -2.0158473798   -0.7089117719
H       -3.7608195226   -1.0204795516   -1.3016490708
H       -3.0705833527    0.6069040644   -1.2108166830
H       -2.5321393225   -0.5114181744   -2.4701788700
23   
torsion grid (90,)
C        1.5012531035   -1.7888798411   -0.6601132535
C        0.8021108549   -0.6320147678    0.0804886355
C        0.4687492023   -1.0538991948    1.5212275317
C        1.7799606535    0.5599659034    0.1295241052
C       -0.4579685170   -0.1915209897   -0.7194623666
C       -1.7780841374   -0.8973124639   -0.3816223493
C       -2.9236605062   -0.4460446535   -1.2955896835
H        1.8340473831   -1.4705354305   -1.6542440499
H        0.8286854390   -2.6453451435   -0.7904078237
H        2.3802503978   -2.1398618070   -0.1068773330
H       -0.0583013743   -0.2571656063    2.0588078303
H       -0.1566094265   -1.9514820704    1.5520485064
H        1.3895410981   -1.2729996480    2.0739896841
H        1.3580478079    1.3932772011    0.7033503303
H        2.7292142669    0.2750495824    0.5985347732
H        2.0023991981    0.9275632638   -0.8792307986
H       -0.6150795805    0.8840178144   -0.5569360019
H       -0.2494255326   -0.3016503377   -1.7914017523
H       -2.0481016018   -0.6975946647    0.6608090058
H       -1.6579512558   -1.9856500057   -0.4657148250
H       -3.8645342006   -0.9422815092   -1.0335474777
H       -3.0849572728    0.6359096116   -1.2205742670
H       -2.7061820192   -0.6746763532   -2.3453987479
23   
torsion grid (105,)
C        1.5145885533   -1.7531364172   -0.7532210071
C        0.7583174309   -0.6633761523    0.0322093088
C        0.4487354373   -1.1759175212    1.4499526038
C        1.6817648684    0.5665880629    0.1507144150
C       -0.5209861352   -0.2479653896   -0.7678432012
C       -1.8767336535   -0.7556598136   -0.2574724337
C       -3.0338504243   -0.2948090391   -1.1519564531
H        1.8225031922   -1.3826117892   -1.7373268814
H        0.8845822729   -2.6372583130   -0.9108070962
H        2.4149319996   -2.0774063618   -0.2180954548
H       -0.0730478485   -0.4210054699    2.0481026026
H       -0.1681872338   -2.0797296721    1.4354391618
H        1.3813425929   -1.4208806921    1.9710596721
H        1.2068963888    1.3601371718    0.7395020434
H        2.6288921209    0.3068000984    0.6384729531
H        1.9162695380    0.9787026018   -0.8377975477
H       -0.5783354188    0.8483995383   -0.7908526223
H       -0.3996277360   -0.5549047578   -1.8140155297
H       -2.0474159407   -0.4015255965    0.7649030856
H       -1.8770104511   -1.8521975200   -0.2075473916
H       -3.9981750289   -0.6523216809   -0.7745888920
H       -3.0806979040    0.7993898452   -1.2044495558
H       -2.9161733562   -0.6688496250   -2.1756967047
23   
torsion grid (120,)
C        1.7371645030   -1.7378443042   -0.7409354834
C        0.9040484785   -0.7243004725    0.0677457070
C        0.6190152261   -1.3298605916    1.4562987385
C        1.7331989949    0.5603391380    0.2618767539
C       -0.3983867909   -0.3753684179   -0.7360137541
C       -1.7550314075   -0.6785188014   -0.0840731978
C       -2.9248279513   -0.2822666907   -0.9930299149
H        2.0000470259   -1.3346142125   -1.7258003734
H        1.1778536019   -2.6676713167   -0.8988664837
H        2.6692747885   -1.9913474908   -0.2220691291
H        0.0538301630   -0.6432913976    2.0946616043
H        0.0565689644   -2.2664355864    1.3877153262
H        1.5632939079   -1.5506346009    1.9670168411
H        1.1722191171    1.3054564813    0.8383988945
H        2.6668841987    0.3544170114    0.7986821756
H        1.9931286364    1.0108892732   -0.7030921551
H       -0.3821270489    0.6927448802   -0.9867088037
H       -0.3680259179   -0.8975879648   -1.7005062612
H       -1.8441162566   -0.1444950757    0.8691602773
H       -1.8305769040   -1.7461968334    0.1532966976
H       -3.8891876842   -0.5018032499   -0.5219019709
H       -2.9016880050    0.7894550068   -1.2230456577
H       -2.8871634542   -0.8242783637   -1.9453007381
23   
torsion grid (135,)
C        1.8673389472   -1.5980179202   -0.8135837807
C        0.9311475060   -0.6616955030   -0.0258910419
C        0.6350822074   -1.3355592791    1.3301605269
C        1.6363148217    0.6809275866    0.2392771143
C       -0.3638728794   -0.4118683463   -0.8696093153
C       -1.7173866808   -0.4941196931   -0.1501152556
C       -2.8865753831   -0.2027606640   -1.0986193753
H        2.1052869726   -1.1829185017   -1.8004542074
H        1.3997756899   -2.5772348066   -0.9667696909
H        2.8126809166   -1.7551041139   -0.2806235079
H        0.0005440209   -0.7144148207    1.9697643811
H        0.1397510456   -2.3040783027    1.2023778798
H        1.5719439294   -1.5151541888    1.8699702964
H        0.9725368592    1.3733371202    0.7707403974
H        2.5361545849    0.5451330932    0.8507419941
H        1.9368569356    1.1604415604   -0.6995277249
H       -0.2843515637    0.5677087734   -1.3575573223
H       -0.3925199827   -1.1416699985   -1.6895898259
H       -1.7477159211    0.2174029936    0.6849897310
H       -1.8484357046   -1.4890226166    0.2887873482
H       -3.8490107787   -0.2724844990   -0.5799625961
H       -2.8090729242    0.8040383799   -1.5253858117
H       -2.9046955522   -0.9137312935   -1.9331184998
23   
torsion grid (150,)
C        1.8927191663   -1.8719574203   -0.6538885696
C        0.8783630674   -1.0116977294    0.1232837743
C        0.5194002192   -1.7703101189    1.4171203101
C        1.5093594456    0.3417362191    0.4952919226
C       -0.3707031679   -0.7802691856   -0.7771355265
C       -1.7218525091   -0.6042589773   -0.0709179940
C       -2.8508113768   -0.2890750781   -1.0596393702
H        2.1475553761   -1.4128991440   -1.6169723387
H        1.4847223648   -2.8685228127   -0.8560762683
H        2.8232402183   -1.9964251414   -0.0874392537
H       -0.1448022151   -1.1895672275    2.0644880460
H        0.0269378265   -2.7248559407    1.1985756794
H        1.4278478235   -1.9910063842    1.9894163934
H        0.7844157201    0.9893372143    1.0021937547
H        2.3645895498    0.2095757330    1.1682784314
H        1.8629576706    0.8698754456   -0.3977817143
H       -0.1822089701    0.0878839154   -1.4222460619
H       -0.4713901246   -1.6369867015   -1.4579330660
H       -1.6594963526    0.2018584379    0.6721435881
H       -1.9719002406   -1.5148326581    0.4835456114
H       -3.8136118287   -0.1839062479   -0.5476684421
H       -2.6553729003    0.6447065170   -1.5995329691
H       -2.9551016062   -1.0855332262   -1.8060016673
23   
torsion grid (165,)
C        1.9923918829   -1.8699802212   -0.7426789573
C        0.9496095193   -1.0916261274    0.0816107802
C        0.6792468660   -1.8728454783    1.3820642105
C        1.5080154742    0.3004480030    0.4284891386
C       -0.3398145044   -0.9574599359   -0.7685550492
C       -1.6174543804   -0.5361187009   -0.0302092518
C       -2.7930072481   -0.3163093154   -0.9902219973
H        2.1827912700   -1.3800798678   -1.7052166155
H        1.6483418871   -2.8898975644   -0.9487658544
H        2.9472764232   -1.9385490465   -0.2084527765
H        0.0197397056   -1.3223345182    2.0601018769
H        0.2127527986   -2.8427886532    1.1722636124
H        1.6170791828   -2.0632783097    1.9165786874
H        0.7845592048    0.8946728502    0.9970969737
H        2.4169257569    0.2179398857    1.0356768967
H        1.7618168299    0.8597748748   -0.4795654769
H       -0.1442278247   -0.2477126894   -1.5841910277
H       -0.5362476385   -1.9240162917   -1.2539194666
H       -1.4404278273    0.3856035565    0.5383712045
H       -1.8911097052   -1.3026214540    0.7030773732
H       -3.7043125044   -0.0365619319   -0.4504007308
H       -2.5725012327    0.4808220218   -1.7096803343
H       -3.0102739348   -1.2259739366   -1.5624780666
23   
torsion grid (180,)
C        2.2090560943   -1.4831349897   -0.9407007528
C        1.1256986125   -0.8600825849   -0.0396579779
C        0.9313976839   -1.7573280400    1.1969685791
C        1.5948519575    0.5368130673    0.4082675071
C       -0.1826762593   -0.7644152914   -0.8619886816
C       -1.4088854669   -0.1678082032   -0.1585795218
C       -2.6367589098   -0.1273187293   -1.0768511677
H        2.3834891695   -0.8686753749   -1.8317052109
H        1.9155242124   -2.4843999804   -1.2771252704
H        3.1615466910   -1.5754754665   -0.4060091078
H        0.2163348524   -1.3260871255    1.9047042529
H        0.5644346570   -2.7501109598    0.9105275830
H        1.8797230692   -1.8928979146    1.7297091985
H        0.8893749531    0.9990370239    1.1059941691
H        2.5650518295    0.4753734291    0.9146813990
H        1.7084104999    1.2091737481   -0.4504303610
H        0.0223509024   -0.1729338098   -1.7655910867
H       -0.4404999080   -1.7729001770   -1.2153456694
H       -1.1862832209    0.8485032515    0.1866936252
H       -1.6501275339   -0.7529876245    0.7364203366
H       -3.5061528122    0.2989234485   -0.5644043731
H       -2.4434968862    0.4806582735   -1.9684213287
H       -2.9095076115   -1.1333647559   -1.4165127145
