23   
torsion grid (-75,)
C        4.9854528903    0.9482927052    6.5552875028
C        5.8270908566    0.6298630890    5.4455237287
C        3.6212282236    0.5537595126    6.5701576191
C        5.4238598930   -0.4061594133    4.5949259982
C        3.2791751156   -0.0344887088    5.3352299364
C        2.5456322241   -2.7309292763    2.2553155422
C        1.9424391258   -0.1296485768    4.8014957704
C        3.5902837052   -2.1607559960    2.8613524020
C        3.8447065923   -2.2622533253    4.3448982559
N        1.0531310013    0.6518177049    5.3373130565
N        4.2503778993   -0.9899387075    5.0217828811
O       -0.1443270645    0.5436251524    4.7148726709
H        5.3820776903    1.5676582477    7.3548591602
H        6.7887471556    1.1136034375    5.3199008387
H        2.8878115745    0.9921994856    7.2370023648
H        6.0746285472   -0.9516506973    3.9204198518
H        2.4291254726   -2.6846497838    1.1764372660
H        1.7825406358   -3.2763939592    2.8079276358
H        1.7121004462   -0.7460031594    3.9353715253
H        4.3440480146   -1.6405393410    2.2714590984
H        2.9788056946   -2.6556470583    4.8799244050
H        4.6785312138   -2.9447333997    4.5432947665
H       -0.7262217468    1.1788096430    5.1758151926
23   
torsion grid (-60,)
C        5.0007339736    1.0429747251    6.4977389926
C        5.8873982624    0.5650396669    5.4991253231
C        3.6378009083    0.7156300499    6.4405443419
C        5.4634599671   -0.4939614672    4.7063111383
C        3.2643348651   -0.0358641138    5.3064271809
C        2.5546171055   -2.6713632470    2.1869269516
C        1.8968212908   -0.1799630811    4.8462765287
C        3.5969302308   -2.1295111385    2.8219258882
C        3.8262721801   -2.2640018771    4.3061488027
N        1.0138989551    0.6010667765    5.3832516785
N        4.2149087340   -0.9916784603    4.9919761054
O       -0.2124316668    0.4258905050    4.8265968757
H        5.3711832971    1.7116017486    7.2693269400
H        6.8959355574    0.9513975680    5.4065411335
H        2.8898230378    1.2286264556    7.0337791610
H        6.1234270928   -1.1038072636    4.0993749310
H        2.4559478677   -2.5992406799    1.1077441240
H        1.7757134434   -3.2191172958    2.7146418962
H        1.6394105209   -0.8471026611    4.0271014346
H        4.3669745542   -1.6032052335    2.2589012933
H        2.9513831240   -2.6632805667    4.8212314681
H        4.6562738155   -2.9482961345    4.5096747656
H       -0.7900742066    1.0623340092    5.2898101181
23   
torsion grid (-45,)
C        5.0099303973    1.1114727774    6.4339133557
C        5.9303652737    0.4926179850    5.5605725079
C        3.6478966437    0.8267741886    6.3247169225
C        5.4959587545   -0.5831089767    4.8045193946
C        3.2603773967   -0.0505530934    5.2954828354
C        2.5504118933   -2.6206042903    2.1349148111
C        1.8726220129   -0.2198947459    4.8867299973
C        3.5995296268   -2.1048017605    2.7802613473
C        3.8187400385   -2.2664426535    4.2622889005
N        0.9945892958    0.5524193585    5.4367869473
N        4.2004796903   -0.9937004874    4.9533670848
O       -0.2492067747    0.3391730849    4.9260129711
H        5.3587436941    1.8419645816    7.1579611498
H        6.9699012238    0.7979477572    5.5218213358
H        2.8951145147    1.4080264703    6.8437885598
H        6.1662209490   -1.2447680412    4.2677389150
H        2.4554239378   -2.5296209114    1.0568893463
H        1.7622458934   -3.1652172967    2.6520419680
H        1.5958583861   -0.9133263945    4.0964505573
H        4.3798638016   -1.5790442984    2.2309445112
H        2.9401857824   -2.6707551867    4.7665886670
H        4.6460222383   -2.9534696876    4.4631108271
H       -0.8231713906    0.9700391349    5.4003249656
23   
torsion grid (-30,)
C        5.0084710487    1.2131368659    6.3725051969
C        5.9549936374    0.4708104337    5.6443792184
C        3.6550728634    0.9490295949    6.2008964236
C        5.5177250840   -0.6285537107    4.9330583228
C        3.2557536797   -0.0456644521    5.2915864968
C        2.5654834547   -2.5601986991    2.1042208753
C        1.8590275460   -0.2521834371    4.9204112965
C        3.6164350796   -2.0658416392    2.7634318223
C        3.8278721651   -2.2506921897    4.2433160378
N        0.9748083659    0.4988131646    5.4860674793
N        4.1988516235   -0.9785858068    4.9426304037
O       -0.2777100300    0.2397514848    5.0143754797
H        5.3298834971    2.0105827110    7.0358388075
H        7.0124066553    0.7092362265    5.6684223502
H        2.8899801376    1.5749555688    6.6450048861
H        6.1957516598   -1.3293073997    4.4594387288
H        2.4773035715   -2.4523157638    1.0271954214
H        1.7687513424   -3.1043711209    2.6085136603
H        1.5787926683   -0.9669532550    4.1510715472
H        4.4057252929   -1.5399674778    2.2273498046
H        2.9487978562   -2.6647949013    4.7382306889
H        4.6561131594   -2.9373876283    4.4378825137
H       -0.8571395469    0.8542163810    5.5028609011
23   
torsion grid (-15,)
C        5.0111903453    1.2722091929    6.2914519717
C        5.9656131777    0.4202906446    5.7135964750
C        3.6617764668    1.0288570505    6.0769847220
C        5.5276156871   -0.6970041510    5.0332286569
C        3.2558512944   -0.0578041571    5.2867457940
C        2.5513377422   -2.5015590521    2.0679287154
C        1.8502749584   -0.2859994017    4.9529467404
C        3.6112810462   -2.0297856089    2.7294358103
C        3.8312317107   -2.2441936057    4.2035939200
N        0.9726108418    0.4661126585    5.5250131030
N        4.2003331764   -0.9764828713    4.9150149077
O       -0.2903858490    0.1765342715    5.0972977168
H        5.3246510991    2.1270383728    6.8832961469
H        7.0301134952    0.6024568015    5.8104181489
H        2.8967594514    1.6996958332    6.4492347562
H        6.2089387484   -1.4342042644    4.6249360583
H        2.4578993157   -2.3714115211    0.9938418887
H        1.7530425745   -3.0490982204    2.5661329358
H        1.5550873366   -1.0271627605    4.2153922713
H        4.4017800207   -1.5001477704    2.1990552570
H        2.9569914675   -2.6715804826    4.6953788820
H        4.6627522445   -2.9309024616    4.3794703270
H       -0.8641486248    0.7929665728    5.5896641404
23   
torsion grid (0,)
C        5.0099871680    1.3159741575    6.2332813107
C        5.9667723930    0.3752997904    5.8255385503
C        3.6690934989    1.0805418587    5.9688691833
C        5.5383333820   -0.7621091503    5.1739338481
C        3.2646396834   -0.0870971100    5.3032243215
C        2.5277332146   -2.4510404778    2.0739636942
C        1.8560681959   -0.3507302739    5.0090578933
C        3.5967466492   -1.9788023285    2.7203778456
C        3.8682089082   -2.2448487922    4.1770903933
N        0.9826759432    0.4476380760    5.5213788485
N        4.2207585800   -0.9885221719    4.9185897959
O       -0.2866801855    0.0994133121    5.1599758392
H        5.3138354975    2.2225903762    6.7479835975
H        7.0261416625    0.5165902926    6.0087013478
H        2.9004286257    1.7843903259    6.2646194832
H        6.2259612131   -1.5277756302    4.8353395182
H        2.3974643685   -2.2835165750    1.0089673043
H        1.7582993310   -3.0360073809    2.5750268356
H        1.5485073055   -1.1693680197    4.3655270683
H        4.3584996021   -1.4105371295    2.1881216640
H        3.0239971279   -2.7204799234    4.6772696542
H        4.7253208783   -2.9108450268    4.2964712605
H       -0.8567611355    0.7571275688    5.6003922793
23   
torsion grid (15,)
C        5.0078659277    1.3509338587    6.1391767222
C        5.9570981547    0.3465069011    5.8989209560
C        3.6747359896    1.1118497221    5.8377076682
C        5.5464656005   -0.8117298707    5.2714953861
C        3.2775603311   -0.1219755802    5.2985315488
C        2.4204689517   -2.3575286485    2.0979827018
C        1.8706255351   -0.4412402167    5.0647379617
C        3.5201034693   -1.8808922602    2.6870683125
C        3.9227961033   -2.2254250287    4.0956538419
N        0.9964944153    0.4578521771    5.3655086085
N        4.2525312057   -0.9936296521    4.8882942324
O       -0.2737649598    0.0185813122    5.1290428696
H        5.3077365282    2.2988406026    6.5759099600
H        7.0005322275    0.4650463821    6.1689347850
H        2.9010707397    1.8334934425    6.0715815172
H        6.2402588049   -1.5963219831    4.9946954677
H        2.1972191653   -2.1292794576    1.0600642141
H        1.7173460500   -3.0055622786    2.6182905215
H        1.5581262516   -1.4033913832    4.6708698241
H        4.2130518638   -1.2470606467    2.1354544768
H        3.1542798938   -2.7944339213    4.6207397755
H        4.8292886554   -2.8335420562    4.0974310561
H       -0.8443753379    0.7673308556    5.3847045641
23   
torsion grid (30,)
C        5.0032548706    1.4166210396    6.0514514760
C        5.9193759820    0.3519544916    5.9888017930
C        3.6764402083    1.2019888950    5.6930707612
C        5.5213429252   -0.8254881277    5.3839983276
C        3.2800153260   -0.0821064075    5.2866065021
C        2.3510082115   -2.2698462679    2.1201869325
C        1.8778218839   -0.4349932570    5.0879836015
C        3.4606570746   -1.7735682712    2.6731739803
C        3.9465242248   -2.1541515983    4.0453954619
N        0.9948922596    0.4828601026    5.2936770934
N        4.2664382997   -0.9369391876    4.8641731314
O       -0.2715526396    0.0032309052    5.1307007032
H        5.3206848829    2.3900480202    6.4134056129
H        6.9342774061    0.4481863861    6.3580380431
H        2.9122792260    1.9533687439    5.8531319094
H        6.2080949930   -1.6372081618    5.1761022489
H        2.0677180517   -2.0130360391    1.1038233345
H        1.6987720888   -2.9622817089    2.6493474232
H        1.5755106950   -1.4439292927    4.8220050595
H        4.1014276998   -1.0936893085    2.1135770143
H        3.2280547359   -2.7771020486    4.5815062807
H        4.8780484024   -2.7191860079    3.9760503570
H       -0.8494957242    0.7695806809    5.3052960133
23   
torsion grid (45,)
C        5.0099311060    1.4212963391    5.9777295890
C        5.8681546625    0.3065662800    6.0839179088
C        3.6934289622    1.2457807332    5.5458163134
C        5.4760535712   -0.8841511138    5.4929655854
C        3.2846040804   -0.0704099913    5.2698825540
C        2.3058446731   -2.2425666718    2.1272954122
C        1.8877847889   -0.4438200010    5.1036625661
C        3.4148183891   -1.7157636449    2.6527072392
C        3.9683401923   -2.1164503379    3.9928066768
N        0.9980410110    0.4696133508    5.3099095098
N        4.2813735221   -0.9112932678    4.8312861278
O       -0.2644999142   -0.0277225551    5.1925238526
H        5.3593044701    2.4041718603    6.2800579611
H        6.8416351101    0.3816190923    6.5551804437
H        2.9501829191    2.0295266509    5.6330914802
H        6.1446773514   -1.7246537527    5.3484242852
H        1.9738171043   -1.9700151351    1.1299754762
H        1.7031475734   -2.9758524055    2.6602268106
H        1.5938260178   -1.4654673733    4.8781568203
H        4.0059731155   -0.9950899924    2.0896472885
H        3.2956143028   -2.7845387117    4.5356753185
H        4.9189462650   -2.6390719842    3.8659770807
H       -0.8479234829    0.7347184238    5.3674705117
23   
torsion grid (60,)
C        5.0240687056    1.4069884067    5.9063714961
C        5.8095252258    0.2584530796    6.1777134216
C        3.7243503062    1.2627107894    5.3961906671
C        5.4247019388   -0.9449759037    5.5981090648
C        3.2989176035   -0.0737561810    5.2558758511
C        2.2885652823   -2.2138280119    2.1251361090
C        1.9139993264   -0.4774110775    5.1257968161
C        3.4049743100   -1.6790211491    2.6263812591
C        4.0029501814   -2.0898326193    3.9436199273
N        1.0142758501    0.4236710367    5.3607285431
N        4.3150782690   -0.8917211137    4.7912912570
O       -0.2399073745   -0.0936994170    5.2906496877
H        5.4076806995    2.3917807606    6.1566658874
H        6.7287149147    0.3231284185    6.7485801793
H        3.0059014745    2.0743068708    5.3949666226
H        6.0635451145   -1.8179708090    5.5239965301
H        1.9236034662   -1.9314648384    1.1421347277
H        1.7129541015   -2.9649112501    2.6632964176
H        1.6328449231   -1.5069715905    4.9202602597
H        3.9690824146   -0.9420744314    2.0568085840
H        3.3630981843   -2.7887207204    4.4887639322
H        4.9651433034   -2.5819895388    3.7798613814
H       -0.8311981781    0.6574079970    5.4893511112
23   
torsion grid (75,)
C        5.0304190847    1.3865625138    5.8155453661
C        5.7263575109    0.2152173070    6.2456976194
C        3.7533814354    1.2886347904    5.2008010390
C        5.3485796169   -1.0119049988    5.6881008887
C        3.3163787760   -0.0504793505    5.2198985888
C        2.2471263100   -2.1710254194    2.1322002045
C        1.9453655848   -0.4883921757    5.1551225782
C        3.3699706156   -1.6232041752    2.6045762982
C        4.0229585543   -2.0483511512    3.8898942135
N        1.0371108122    0.4111124750    5.3855596456
N        4.3523424799   -0.8615776542    4.7477853419
O       -0.2051287461   -0.1272526033    5.3917123882
H        5.4525009345    2.3617358824    6.0416544988
H        6.5760098204    0.2868160515    6.9146703038
H        3.0735953807    2.1290299397    5.1183048458
H        5.9500673319   -1.9146780948    5.6852152577
H        1.8407371235   -1.8763724910    1.1692301814
H        1.7079031208   -2.9459954854    2.6742352341
H        1.6774512391   -1.5329161168    5.0156567254
H        3.8969702656   -0.8621886130    2.0311130795
H        3.4176974497   -2.7756291300    4.4389519849
H        4.9901769600   -2.5150602120    3.6805136456
H       -0.8031195993    0.6209591242    5.5844975023
