23   
torsion grid (-165,)
C       -1.2620731221    2.6861928099    1.7938886945
C        1.6103951884    2.5854415189    2.7266560592
C        1.6191560903    0.1037931882    2.3441586438
C       -2.3041009018    3.8325734513   -0.1348846868
C       -0.5919527839    1.3759198863    2.2404356083
C        0.9326445582    1.4303837990    1.9714874728
N       -1.2055002176    0.2459022976    1.5137700661
N       -1.6416826451    2.6984744314    0.4865152537
O       -1.3943184139    3.6429700298    2.5603101007
H        1.0565137254    3.5223077066    2.6494870209
H        1.7223187842    2.3399116202    3.7893890923
H        2.6183930358    2.7439101346    2.3275412508
H        1.3937104062   -0.1786568958    3.3801051234
H        1.3318887285   -0.7242577188    1.6875979443
H        2.7061162987    0.2084415349    2.2619902962
H       -3.3797119337    3.6553239996   -0.2594060691
H       -1.8645236724    4.0384992105   -1.1161724417
H       -2.1672936622    4.7014818020    0.5099847182
H       -0.7441916142    1.3243390981    3.3283857506
H        1.0754355121    1.5815664353    0.8937606255
H       -2.1687375662    0.1266504123    1.8252905632
H       -0.7235679542   -0.6199769423    1.7427751802
H       -1.5727689608    1.8088428053    0.0024552706
23   
torsion grid (-150,)
C       -1.2665110894    2.6839296176    1.7832594947
C        1.6096752712    2.5582229082    2.7633669153
C        1.6003965433    0.0835761112    2.3146086892
C       -2.2950852768    3.8179024174   -0.1602733130
C       -0.6043937836    1.3741172861    2.2436164954
C        0.9209134687    1.4236088414    1.9777651194
N       -1.2206363155    0.2412581805    1.5244384913
N       -1.6514214343    2.6823444622    0.4777305857
O       -1.3901404126    3.6513028669    2.5383000229
H        0.9633596231    3.4247214397    2.9109961117
H        1.9501775406    2.2001848316    3.7418582440
H        2.5068705649    2.8875240041    2.2275858706
H        1.3751406697   -0.2256341250    3.3430692938
H        1.3101555231   -0.7246310084    1.6349504361
H        2.6877570441    0.1876445147    2.2351565314
H       -3.3685954480    3.6448742021   -0.3060269301
H       -1.8350199363    4.0196472666   -1.1331500314
H       -2.1667798481    4.6876552463    0.4851803534
H       -0.7591184031    1.3314032682    3.3316224351
H        1.0712532319    1.5913299392    0.9040018599
H       -2.1879071740    0.1344271421    1.8279140308
H       -0.7485483489   -0.6259108979    1.7685749460
H       -1.5788533949    1.7898086475   -0.0002772639
23   
torsion grid (-135,)
C       -1.2707574670    2.6689017544    1.7897259474
C        1.5966004081    2.5535742668    2.7514141022
C        1.5865672319    0.0611967706    2.3373969905
C       -2.2733123170    3.8288030157   -0.1530886012
C       -0.6157008151    1.3521587806    2.2407859481
C        0.9112588788    1.3981159037    1.9815295921
N       -1.2323474474    0.2294701662    1.5067637002
N       -1.6417276821    2.6838992932    0.4802966121
O       -1.4024192303    3.6264855588    2.5558707901
H        0.8856194105    3.2977432256    3.1140218726
H        2.1688994750    2.1698634681    3.6029282540
H        2.3145031582    3.0687494103    2.1046197380
H        1.3778612474   -0.2215372728    3.3768537586
H        1.2786236006   -0.7613115107    1.6829413367
H        2.6728200868    0.1549682817    2.2346923730
H       -3.3413610553    3.6531145823   -0.3315883258
H       -1.7881209211    4.0526261018   -1.1088933253
H       -2.1670866129    4.6859271232    0.5129073861
H       -0.7759501384    1.2993406303    3.3274718803
H        1.0577949813    1.5472879883    0.9049744132
H       -2.2033465154    0.1264954406    1.7994473312
H       -0.7683767698   -0.6428175690    1.7480628288
H       -1.5630624646    1.7977157756   -0.0083554813
23   
torsion grid (-120,)
C       -1.2609524326    2.6445217827    1.7931719593
C        1.5801844302    2.5433719421    2.6974399877
C        1.5741887998    0.0239134218    2.3906980567
C       -2.2267391712    3.8554917969   -0.1373204761
C       -0.6221309095    1.3127851221    2.2234678590
C        0.9082172354    1.3465645263    1.9748633575
N       -1.2436723174    0.2113597028    1.4619357568
N       -1.6067939725    2.6940831550    0.4773867983
O       -1.4016852023    3.5831106501    2.5804497659
H        0.8642021293    3.1243844303    3.2823394082
H        2.3667717094    2.1999860377    3.3769513998
H        2.0417815246    3.2302305323    1.9819523811
H        1.3889767636   -0.1922783475    3.4502025005
H        1.2357626021   -0.8326140277    1.7977139798
H        2.6581588285    0.0920191057    2.2523916297
H       -3.2895502088    3.6820011865   -0.3465368905
H       -1.7197144337    4.1093551645   -1.0741502566
H       -2.1393311428    4.6926044513    0.5562792318
H       -0.7921072695    1.2409356716    3.3074429354
H        1.0403983078    1.4595009769    0.8921790220
H       -2.2182950868    0.1117312961    1.7434982372
H       -0.7904745453   -0.6704196434    1.6885963818
H       -1.5312510113    1.8175589107   -0.0288774853
23   
torsion grid (-105,)
C       -1.2017864815    2.8096638342    1.6986464332
C        1.6015021476    2.7861236420    2.5536729555
C        1.6257616822    0.2475063638    2.5237070003
C       -2.1331493170    3.9623564540   -0.2815227314
C       -0.5735486662    1.4911791222    2.1828304558
C        0.9612632843    1.5105810185    1.9550691567
N       -1.1854952434    0.3654938622    1.4492602546
N       -1.5140448197    2.8223868325    0.3732449329
O       -1.3596331334    3.7706449458    2.4543551591
H        0.9546603103    3.2379982006    3.3102547798
H        2.5517514196    2.5531682006    3.0444168187
H        1.7780381423    3.5497878916    1.7917868658
H        1.4598695644    0.1741885258    3.6054232177
H        1.2649644745   -0.6762812899    2.0584988232
H        2.7068770887    0.2822710149    2.3550907664
H       -3.2088641941    3.8084709824   -0.4339300968
H       -1.6615188369    4.1438301341   -1.2525615932
H       -1.9945331045    4.8370549256    0.3551003546
H       -0.7608116004    1.4573954608    3.2656886528
H        1.0899986041    1.5211933919    0.8657676203
H       -2.1587898313    0.2619300435    1.7337323854
H       -0.7227400391   -0.5063935709    1.6945007166
H       -1.4475856174    1.9265617393   -0.0995739953
23   
torsion grid (-90,)
C       -1.2238276892    2.8123875471    1.7038506765
C        1.5636942641    2.8351391296    2.4895914285
C        1.6291993958    0.3078807024    2.5925909783
C       -2.1571705832    3.9918859242   -0.2590113181
C       -0.5848062675    1.4917525822    2.1651489052
C        0.9516924117    1.5273341744    1.9500675518
N       -1.1767480253    0.3724034189    1.4050698678
N       -1.5234863220    2.8486805329    0.3758158899
O       -1.3963490572    3.7554505467    2.4783432116
H        1.0481517118    3.1618597668    3.3978293419
H        2.6156808439    2.6879205611    2.7550494427
H        1.4881518932    3.6522937297    1.7682042115
H        1.4828375594    0.3123960166    3.6794574674
H        1.2578090465   -0.6475180290    2.2058141231
H        2.7070703562    0.3278137822    2.4020223925
H       -3.2332175641    3.8324500635   -0.4038013759
H       -1.6954319141    4.1883149085   -1.2318068885
H       -2.0195581130    4.8599451441    0.3869035254
H       -0.7796131430    1.4350994117    3.2454994597
H        1.0904708795    1.4910493708    0.8619528255
H       -2.1394444168    0.2248308694    1.7054066805
H       -0.6790227636   -0.4914489460    1.6069799686
H       -1.4561582551    1.9590146856   -0.1086496043
23   
torsion grid (-75,)
C       -1.2224870592    2.8322992695    1.6656149998
C        1.5701551518    2.8450414224    2.4793890833
C        1.6164612672    0.3278104450    2.6002185337
C       -2.1480072410    3.9903872144   -0.3143155440
C       -0.5875559752    1.5167283606    2.1441717207
C        0.9503566500    1.5458407694    1.9414523049
N       -1.1753235223    0.3885507350    1.3932897623
N       -1.5204818540    2.8531257733    0.3369227102
O       -1.3935075016    3.7846811351    2.4289014986
H        1.2209834359    3.0533448173    3.4961985846
H        2.6611896986    2.7566008648    2.5158456162
H        1.3095980529    3.7099391406    1.8655278404
H        1.4429902201    0.3296354763    3.6831136752
H        1.2589224467   -0.6282580708    2.2023785681
H        2.6989281315    0.3512893939    2.4375457581
H       -3.2179858489    3.8195345022   -0.4875575979
H       -1.6630958740    4.1933082849   -1.2745874226
H       -2.0360407043    4.8588190052    0.3360340575
H       -0.7894584872    1.4723785429    3.2237674720
H        1.1141678532    1.4996244496    0.8568798179
H       -2.1405679141    0.2468703361    1.6884314298
H       -0.6812224021   -0.4734318709    1.6115537184
H       -1.4477411990    1.9590551356   -0.1385652088
23   
torsion grid (-60,)
C       -1.2502655077    2.8270341535    1.6713120473
C        1.5716041766    2.8099872268    2.6000414730
C        1.5999460354    0.2967443317    2.5292201332
C       -2.1960498517    3.9220295942   -0.3350715459
C       -0.6024117714    1.5303705555    2.1835474611
C        0.9317688255    1.5644558257    1.9696270868
N       -1.1926827467    0.3786931694    1.4712286237
N       -1.5604497670    2.8065712867    0.3455665231
O       -1.4235848107    3.8009312997    2.4066370112
H        1.4301768610    2.8161441095    3.6867167525
H        2.6480376114    2.8183327290    2.3981910794
H        1.1435783270    3.7359962084    2.2111997775
H        1.3677501488    0.1691559220    3.5936911019
H        1.3005038808   -0.6143569361    2.0003030768
H        2.6883843950    0.3704063134    2.4356106446
H       -3.2696568090    3.7496379018   -0.4824862948
H       -1.7277938325    4.0868540176   -1.3106494349
H       -2.0694191152    4.8135128836    0.2804460867
H       -0.7957407848    1.5163410660    3.2659153051
H        1.1049646626    1.5922468755    0.8858851081
H       -2.1681318648    0.2726610474    1.7475875200
H       -0.7243014248   -0.4809001050    1.7474901809
H       -1.4727718724    1.9038090563   -0.1102317185
23   
torsion grid (-45,)
C       -1.2275698604    2.8588159101    1.6341867432
C        1.6062488402    2.7711820215    2.6939587991
C        1.5804893113    0.2703155544    2.4656112371
C       -2.1706997567    3.8876741877   -0.4086326861
C       -0.5993053737    1.5716933018    2.1944729540
C        0.9354138159    1.5831313438    1.9848040899
N       -1.2044451353    0.4049152596    1.5207522567
N       -1.5525647489    2.7890457591    0.3139582740
O       -1.3751535344    3.8665844247    2.3291680239
H        1.6729953760    2.5969081162    3.7739093603
H        2.6188646762    2.9161758498    2.3030484902
H        1.0563614607    3.7026870241    2.5447441384
H        1.3085605170    0.0562610133    3.5068174733
H        1.3042303525   -0.5918933118    1.8494949533
H        2.6716591380    0.3520254894    2.4223653932
H       -3.2448337645    3.7211929827   -0.5584342891
H       -1.6937720322    4.0153172242   -1.3857235561
H       -2.0386130204    4.7977422878    0.1777961371
H       -0.7954833385    1.5960907333    3.2763389429
H        1.1250345418    1.6637076792    0.9067837456
H       -2.1816631320    0.3232255032    1.7990836227
H       -0.7490048280   -0.4510819940    1.8278235655
H       -1.4805479517    1.8676818215   -0.1060450782
23   
torsion grid (-30,)
C       -1.2951350542    2.7293346241    1.7264718551
C        1.5503095016    2.6319151180    2.7947350466
C        1.5434647834    0.1407284613    2.4456896221
C       -2.2495703206    3.8067418450   -0.2857680453
C       -0.6519293308    1.4335052457    2.2489369845
C        0.8814557698    1.4689041167    2.0332287674
N       -1.2479820864    0.2810011006    1.5438228638
N       -1.6243453554    2.6925172749    0.4062030584
O       -1.4513486136    3.7164086469    2.4491504601
H        1.8492454048    2.3245784647    3.8027398595
H        2.4384964878    2.9782156486    2.2565381945
H        0.8830347612    3.4908514579    2.8949727102
H        1.2897671592   -0.1215176011    3.4805433955
H        1.2661562230   -0.6956842035    1.7953365085
H        2.6330550766    0.2360141922    2.3900531336
H       -3.3235724808    3.6398379647   -0.4359055127
H       -1.7766848221    3.9608738103   -1.2609782238
H       -2.1189036052    4.7021896340    0.3230474258
H       -0.8437794911    1.4243951884    3.3318226071
H        1.0688775922    1.5922847416    0.9593724968
H       -2.2264164673    0.1886087157    1.8145714541
H       -0.7905594692   -0.5801290023    1.8330321463
H       -1.5391924621    1.7856171915   -0.0417372520
23   
torsion grid (-15,)
C       -1.2763578233    2.7191459628    1.7174544883
C        1.5554991911    2.6030295862    2.7869646148
C        1.5256792800    0.0976517151    2.4542139466
C       -2.1992121432    3.8160150929   -0.2993295583
C       -0.6543170121    1.4130002791    2.2405515070
C        0.8812301282    1.4308030216    2.0324768248
N       -1.2610805781    0.2708325291    1.5287217062
N       -1.5974376758    2.6904517420    0.3950268849
O       -1.4247789744    3.7059085451    2.4423361481
H        2.0890206354    2.2484034741    3.6747374861
H        2.2711451732    3.1214313468    2.1414694932
H        0.8282022875    3.3505063616    3.1115199442
H        1.2768536173   -0.1490368886    3.4940797304
H        1.2299983018   -0.7416242758    1.8156186893
H        2.6159623097    0.1751359386    2.3875497616
H       -3.2703675148    3.6572190014   -0.4758255432
H       -1.7032955296    3.9782105251   -1.2618276569
H       -2.0767584539    4.7037324619    0.3223515567
H       -0.8522353228    1.4036256689    3.3222634497
H        1.0651903383    1.5433543176    0.9572648474
H       -2.2426936146    0.1911890513    1.7918105876
H       -0.8175527778   -0.5972855768    1.8185448849
H       -1.5190884427    1.7843317585   -0.0557002256
23   
torsion grid (0,)
C       -1.2466948998    2.7289151475    1.7042378388
C        1.5529439693    2.6284188842    2.7282120264
C        1.5179314719    0.0974908752    2.5388461593
C       -2.1221124665    3.8576796555   -0.3155273123
C       -0.6486759342    1.4100347194    2.2241632160
C        0.8907115492    1.4084570533    2.0357159005
N       -1.2595313450    0.2823352411    1.4930975270
N       -1.5370372673    2.7204324468    0.3741787348
O       -1.4025699490    3.7070141367    2.4387755182
H        2.3150057849    2.3058079820    3.4448675324
H        2.0463745590    3.2781548169    1.9993958888
H        0.8262677473    3.2416298363    3.2649098436
H        1.2892060439   -0.0651798499    3.5994173439
H        1.1881179469   -0.7814265540    1.9744081630
H        2.6073597811    0.1426646033    2.4394205507
H       -3.1912605754    3.7070012114   -0.5106425480
H       -1.6103431243    4.0291504754   -1.2680378498
H       -2.0047972048    4.7369162245    0.3190607782
H       -0.8625222779    1.3944698629    3.3025989111
H        1.0667024403    1.4692743591    0.9551115423
H       -2.2435624658    0.2057011323    1.7477523034
H       -0.8242517746   -0.5932718462    1.7725288849
H       -1.4676944356    1.8166278205   -0.0827584150
23   
torsion grid (15,)
C       -1.2641788706    2.6999248538    1.7228462646
C        1.5052149085    2.6494495638    2.6633377615
C        1.5128354588    0.1100651413    2.6262724919
C       -2.1163854745    3.8811492388   -0.2768660136
C       -0.6642846305    1.3706788875    2.2129051405
C        0.8777211099    1.3798890940    2.0390231173
N       -1.2593590969    0.2585383589    1.4454040531
N       -1.5316120948    2.7290065490    0.3879505347
O       -1.4383903562    3.6539240183    2.4838075219
H        2.4516547994    2.4051872905    3.1576339382
H        1.7362937109    3.3976636070    1.8998437529
H        0.8487918883    3.1148079341    3.4015135373
H        1.3122490856    0.0372119942    3.7020862797
H        1.1586926938   -0.8102340887    2.1491324541
H        2.5989964789    0.1351301586    2.4919288675
H       -3.1828826928    3.7305565997   -0.4862928786
H       -1.5964350437    4.0805290061   -1.2194324501
H       -2.0099927183    4.7437154017    0.3820880356
H       -0.8896668836    1.3265352912    3.2880832196
H        1.0450162728    1.3934220178    0.9550805715
H       -2.2417713625    0.1569919769    1.6973723688
H       -0.8095059700   -0.6193509531    1.6930742739
H       -1.4556325883    1.8375467103   -0.0916465821
23   
torsion grid (30,)
C       -1.2384676519    2.7184720490    1.7050104723
C        1.5146032221    2.6655924620    2.5990375641
C        1.5081816255    0.1348068824    2.6935329027
C       -2.0599598142    3.9265661702   -0.2912544978
C       -0.6537740581    1.3801882188    2.1864967981
C        0.8902738189    1.3754312613    2.0315121782
N       -1.2452713819    0.2782038680    1.4011737280
N       -1.4883200024    2.7641778471    0.3670073696
O       -1.4139164279    3.6644720358    2.4752336137
H        2.5609167563    2.4880518230    2.8715049378
H        1.5152443216    3.4702851357    1.8589027131
H        0.9860555615    3.0196892093    3.4876070518
H        1.3096632154    0.1322526692    3.7720921787
H        1.1343771165   -0.8077215876    2.2784306383
H        2.5941971068    0.1314783543    2.5554886051
H       -3.1240028932    3.7824782913   -0.5171205127
H       -1.5265606993    4.1362112408   -1.2240664594
H       -1.9596489383    4.7802868007    0.3801015237
H       -0.8916737589    1.3269529116    3.2584013546
H        1.0710884223    1.3402334119    0.9497144549
H       -2.2252435035    0.1628182951    1.6564984086
H       -0.7858622034   -0.6005487118    1.6282153466
H       -1.4192803429    1.8754602103   -0.1188372462
23   
torsion grid (45,)
C       -1.1968594549    2.7503030511    1.7035436689
C        1.5639596639    2.6608469030    2.5966700535
C        1.5183703946    0.1420111914    2.7140701633
C       -2.0070830601    3.9678440732   -0.2909720708
C       -0.6253651145    1.4067668285    2.1843355588
C        0.9185966978    1.3836428704    2.0360761513
N       -1.2247069907    0.3099797666    1.3971354783
N       -1.4433427873    2.8003191522    0.3650335191
O       -1.3640040726    3.6967913836    2.4748079650
H        2.6507919386    2.5344576745    2.6551045402
H        1.3683250676    3.5270696352    1.9601385185
H        1.1924465945    2.8914292919    3.5996747352
H        1.3110687693    0.1506868348    3.7909441239
H        1.1372101265   -0.8001206401    2.3048925567
H        2.6055115012    0.1249493188    2.5855489423
H       -3.0767117143    3.8397542937   -0.4997761758
H       -1.4846105833    4.1630840400   -1.2329282941
H       -1.8834476678    4.8240227459    0.3733757965
H       -0.8668665471    1.3556151919    3.2554891929
H        1.1192899425    1.3349592726    0.9578857140
H       -2.2036392870    0.1966418930    1.6573072120
H       -0.7670994512   -0.5712884093    1.6181410135
H       -1.3850353214    1.9108170963   -0.1208539486
23   
torsion grid (60,)
C       -1.1975579561    2.7346893609    1.6927397751
C        1.5826155851    2.5688331569    2.7155742286
C        1.4885876737    0.0577523828    2.6296524490
C       -2.0106819475    3.9025623783   -0.3318727793
C       -0.6350242666    1.4000970951    2.2080378712
C        0.9063762783    1.3597426237    2.0532615481
N       -1.2528188217    0.2893141812    1.4551650418
N       -1.4618958326    2.7469050938    0.3570155128
O       -1.3472089282    3.7062063656    2.4363579746
H        2.6664423101    2.5183466924    2.5658029272
H        1.2227086137    3.5169666267    2.3115145103
H        1.3911220865    2.5817063337    3.7944730451
H        1.2109981752   -0.0616331827    3.6841269088
H        1.1630217250   -0.8352413029    2.0854935163
H        2.5820759623    0.0760230278    2.5764017408
H       -3.0769668403    3.7723111869   -0.5552474219
H       -1.4727421926    4.0780507538   -1.2691322188
H       -1.8949838149    4.7713089568    0.3173498972
H       -0.8708214368    1.3802868848    3.2818302812
H        1.1215323555    1.3842114680    0.9769385897
H       -2.2417080222    0.2258067909    1.6942614824
H       -0.8360447396   -0.5959430324    1.7330168692
H       -1.3981924290    1.8476351022   -0.1095337113
23   
torsion grid (75,)
C       -1.1971202742    2.7775576395    1.6666534048
C        1.5938453655    2.5799820330    2.8125050198
C        1.4870457882    0.0830199379    2.5673443199
C       -2.0360381275    3.8580996328   -0.3947706547
C       -0.6344738914    1.4634999603    2.2340714022
C        0.9055634177    1.4204382455    2.0738704131
N       -1.2593966398    0.3253996203    1.5300500118
N       -1.4829065956    2.7309400844    0.3365094716
O       -1.3292916223    3.7842378035    2.3664044058
H        2.6348829774    2.6720503958    2.4869415989
H        1.0839416778    3.5329149465    2.6599281058
H        1.5984015642    2.3930842378    3.8935092926
H        1.1737228111   -0.1261889963    3.5978266212
H        1.2000638584   -0.7655266334    1.9373088335
H        2.5812982784    0.1250291742    2.5599006503
H       -3.1111947737    3.7356464492   -0.5763607738
H       -1.5264869710    3.9728971213   -1.3568432295
H       -1.8849136774    4.7583545611    0.2021207946
H       -0.8645023691    1.4857663220    3.3092975902
H        1.1314201382    1.4994977213    1.0026031062
H       -2.2471251048    0.2762455440    1.7771511176
H       -0.8444815120   -0.5491673661    1.8421946930
H       -1.4310333763    1.8112112765   -0.0900014016
23   
torsion grid (90,)
C       -1.1844206816    2.7439051054    1.6599768100
C        1.6026079711    2.4756282342    2.8432531087
C        1.4493763219   -0.0136732882    2.5159406572
C       -1.9911981295    3.8520000341   -0.4005372025
C       -0.6481609650    1.4161046755    2.2214341828
C        0.8913401561    1.3493173586    2.0657803708
N       -1.2906714925    0.2946172023    1.5073907875
N       -1.4727304260    2.7082993606    0.3302519347
O       -1.2975411250    3.7497959781    2.3646149307
H        2.5566354789    2.7307952119    2.3722902532
H        0.9890214364    3.3743840762    2.9292567326
H        1.8187055157    2.1478275764    3.8675912282
H        1.1360646812   -0.2489610614    3.5408958353
H        1.1467605905   -0.8368478024    1.8600303744
H        2.5442175947    0.0115536986    2.5063220006
H       -3.0541434513    3.7283237181   -0.6419247737
H       -1.4325998503    3.9963825764   -1.3312608540
H       -1.8762372377    4.7359858220    0.2278254698
H       -0.8813966108    1.4347991562    3.2961011014
H        1.1279132718    1.4473299545    0.9988074271
H       -2.2827238445    0.2698248646    1.7405668501
H       -0.9018514637   -0.5900521501    1.8245710271
H       -1.4252886154    1.7923019497   -0.1045632164
23   
torsion grid (105,)
C       -1.1832266303    2.7482487658    1.6570610123
C        1.5953749336    2.5054741647    2.8293398805
C        1.4417765720   -0.0027339230    2.5577008491
C       -1.9662269116    3.8570710746   -0.4122357224
C       -0.6529797099    1.4202115472    2.2243038458
C        0.8880575391    1.3511932685    2.0777536597
N       -1.2916868264    0.2991642598    1.5068234469
N       -1.4540692680    2.7137077542    0.3235729243
O       -1.3071046019    3.7533262043    2.3610334892
H        2.3867554272    2.9495952019    2.2186185059
H        0.9009617078    3.2943023401    3.1249021687
H        2.0621907004    2.1336448820    3.7485472343
H        1.1383733116   -0.2080591807    3.5920038478
H        1.1263763538   -0.8416237347    1.9280080804
H        2.5364524139    0.0142724378    2.5341644870
H       -3.0289419500    3.7369256878   -0.6566390933
H       -1.4040923111    3.9961700482   -1.3415669193
H       -1.8500305421    4.7426593731    0.2136401750
H       -0.8935164231    1.4405783688    3.2972383046
H        1.1197989263    1.4239121217    1.0082237260
H       -2.2856209480    0.2758086619    1.7318943079
H       -0.9065058929   -0.5859033971    1.8272528448
H       -1.4041400101    1.7973839872   -0.1102498200
23   
torsion grid (120,)
C       -1.1739125984    2.7225025519    1.6672315013
C        1.5785929645    2.4923717380    2.7909781456
C        1.4241465834   -0.0354992284    2.6185647131
C       -1.9132937480    3.8819883595   -0.3903745123
C       -0.6609670325    1.3788258603    2.2132466577
C        0.8823963848    1.3004711778    2.0829159241
N       -1.2976918874    0.2783810971    1.4628442442
N       -1.4190423906    2.7198306715    0.3280880956
O       -1.3067469962    3.7112740303    2.3919720605
H        2.1240280906    3.1139188075    2.0747035642
H        0.8635122562    3.1442635047    3.2968867289
H        2.3002370521    2.1405700420    3.5350327209
H        1.1491778065   -0.1763331187    3.6712471602
H        1.0708266073   -0.9020253040    2.0492165669
H        2.5173367378   -0.0460783114    2.5587502227
H       -2.9689210537    3.7671127356   -0.6659341453
H       -1.3271471948    4.0470612839   -1.3004796233
H       -1.8151692307    4.7503608643    0.2621467674
H       -0.9155416759    1.3785891912    3.2829369545
H        1.1006208426    1.3426891540    1.0091270708
H       -2.2949143115    0.2567056708    1.6730439396
H       -0.9230538686   -0.6163990791    1.7683073650
H       -1.3676284533    1.8129586266   -0.1250007142
23   
torsion grid (135,)
C       -1.2215720396    2.7113402347    1.8069011395
C        1.6134403782    2.7045286126    2.5473537094
C        1.6881324655    0.1726229978    2.3763452869
C       -2.2625032958    3.9397457046   -0.0703342578
C       -0.5485353629    1.3837571933    2.1957242535
C        0.9747587861    1.4492395459    1.9057125101
N       -1.1687784445    0.2838159081    1.4308222065
N       -1.5950245532    2.7816183186    0.4993496425
O       -1.3603233725    3.6311607540    2.6159305254
H        1.7253219033    3.5061794319    1.8109051810
H        0.9882640007    3.1175026768    3.3425344737
H        2.6064724742    2.4841446024    2.9501970723
H        1.5708609302    0.0377450776    3.4585515591
H        1.3272238563   -0.7334046014    1.8774238154
H        2.7602623160    0.2405967698    2.1653166922
H       -3.3374004110    3.7637743301   -0.2028182267
H       -1.8239380120    4.1919238333   -1.0412105399
H       -2.1293023538    4.7789773522    0.6134227749
H       -0.6882234650    1.2907717751    3.2821780303
H        1.0573859692    1.5225347028    0.8144745011
H       -2.1249503729    0.1406061333    1.7535553726
H       -0.6751837316   -0.5878873259    1.6065116975
H       -1.5330570573    1.9113588443   -0.0196708274
23   
torsion grid (150,)
C       -1.1965947717    2.7324631094    1.7876941336
C        1.6192396205    2.7271988228    2.4695896940
C        1.6892541068    0.1968201954    2.4551342681
C       -2.2087318037    3.9946065021   -0.0836724866
C       -0.5388184937    1.3943476629    2.1643297479
C        0.9884421507    1.4436772708    1.8945190626
N       -1.1567009694    0.3081874908    1.3772688286
N       -1.5535557180    2.8250695819    0.4768485214
O       -1.3356045235    3.6405888954    2.6094131712
H        1.5029924850    3.5655878112    1.7764133056
H        1.1270141468    3.0361486271    3.3959170945
H        2.6889654932    2.5905481689    2.6552215433
H        1.5745178918    0.1456042758    3.5445664159
H        1.3112498879   -0.7398791332    2.0307092917
H        2.7611222028    0.2325825855    2.2351830007
H       -3.2823406675    3.8249834253   -0.2337522273
H       -1.7559420333    4.2606778081   -1.0442982812
H       -2.0818635211    4.8222748208    0.6152428200
H       -0.6930924969    1.2884002527    3.2475154882
H        1.0884655422    1.4572367121    0.8017235066
H       -2.1079258768    0.1454133152    1.7050636903
H       -0.6514263296   -0.5625084463    1.5233228603
H       -1.4992807719    1.9590554634   -0.0502283504
23   
torsion grid (165,)
C       -1.2564494791    2.6569937613    1.8297478680
C        1.5661941269    2.6706442454    2.5183424881
C        1.6581764282    0.1509819280    2.4833829663
C       -2.2755598835    3.9335794687   -0.0281703706
C       -0.5810205395    1.3238121794    2.1889205434
C        0.9462211596    1.3944756719    1.9277594066
N       -1.1808554755    0.2393756896    1.3847241599
N       -1.6059824061    2.7654306281    0.5180993482
O       -1.4139947830    3.5493348144    2.6651772517
H        1.2619583602    3.5600995759    1.9607023124
H        1.2452761891    2.8254517264    3.5533436003
H        2.6591587868    2.6114228357    2.4928855680
H        1.5297646270    0.0845707943    3.5704837732
H        1.2993291430   -0.7857604572    2.0429057468
H        2.7325443831    0.2040494670    2.2791596961
H       -3.3474863607    3.7536707950   -0.1785005882
H       -1.8272543521    4.2151270776   -0.9864222050
H       -2.1571972087    4.7549246853    0.6796616448
H       -0.7378501898    1.2009546078    3.2699131613
H        1.0673411714    1.4180013069    0.8368987899
H       -2.1307483737    0.0591696021    1.7073680153
H       -0.6641400753   -0.6260496820    1.5222970828
H       -1.5361187706    1.9086927487   -0.0221143579
23   
torsion grid (180,)
C       -1.2569821484    2.6435731813    1.8160385411
C        1.5958768695    2.5781706139    2.6272412265
C        1.6263657673    0.0742257515    2.4021294865
C       -2.2778476089    3.8747664423   -0.0720532663
C       -0.5893908003    1.3162073309    2.2103474821
C        0.9364537176    1.3709158107    1.9450557858
N       -1.2023452804    0.2156515741    1.4386602024
N       -1.6206779328    2.7148385368    0.5057777643
O       -1.4007394986    3.5626360356    2.6246820179
H        1.1607728628    3.5257279066    2.3036784327
H        1.4847690804    2.5220763547    3.7160102981
H        2.6668661676    2.5950108731    2.3987715210
H        1.4342456088   -0.1172691601    3.4649794505
H        1.3081159452   -0.8048804280    1.8316705490
H        2.7105090923    0.1563930915    2.2725321867
H       -3.3475447636    3.6940088308   -0.2358281206
H       -1.8142543356    4.1388153443   -1.0281449822
H       -2.1680621762    4.7080895225    0.6230105735
H       -0.7440571635    1.2238647193    3.2950493312
H        1.0700799827    1.4657734108    0.8594586555
H       -2.1663608647    0.0837590040    1.7426008228
H       -0.7208578827   -0.6588006006    1.6338054967
H       -1.5445265943    1.8481206379   -0.0171301672
