
  -OEChem-12122420533D

 25 25  0     1  0  0  0  0  0999 V2000
    3.1863    1.0410   -2.0204 O   0  0  0  0  0  0  0  0  0  0  0  0
    3.2328   -0.3122   -2.0821 C   0  0  0  0  0  0  0  0  0  0  0  0
    4.2071   -0.9252   -2.4733 O   0  0  0  0  0  0  0  0  0  0  0  0
    1.9292   -0.9545   -1.5930 C   0  0  2  0  0  0  0  0  0  0  0  0
    1.9265   -0.9697   -0.0702 C   0  0  0  0  0  0  0  0  0  0  0  0
    3.0279   -1.4796    0.6349 C   0  0  0  0  0  0  0  0  0  0  0  0
    3.9048   -1.8289    0.0950 H   0  0  0  0  0  0  0  0  0  0  0  0
    3.0129   -1.5345    2.0271 C   0  0  0  0  0  0  0  0  0  0  0  0
    3.8692   -1.9315    2.5645 H   0  0  0  0  0  0  0  0  0  0  0  0
    1.8921   -1.0709    2.7329 C   0  0  0  0  0  0  0  0  0  0  0  0
    1.8162   -1.1341    4.5252 P   0  0  0  0  0  0  0  0  0  0  0  0
    0.5401   -0.6692    5.1223 O   0  0  0  0  0  0  0  0  0  0  0  0
    2.2109   -2.6589    4.9662 O   0  0  0  0  0  0  0  0  0  0  0  0
    1.4109   -3.1610    5.2002 H   0  0  0  0  0  0  0  0  0  0  0  0
    3.1775   -0.3592    4.9333 O   0  0  0  0  0  0  0  0  0  0  0  0
    3.3178   -0.3324    5.8965 H   0  0  0  0  0  0  0  0  0  0  0  0
    0.7913   -0.5568    2.0351 C   0  0  0  0  0  0  0  0  0  0  0  0
   -0.0720   -0.1992    2.5888 H   0  0  0  0  0  0  0  0  0  0  0  0
    0.8133   -0.5100    0.6398 C   0  0  0  0  0  0  0  0  0  0  0  0
   -0.0440   -0.1161    0.1002 H   0  0  0  0  0  0  0  0  0  0  0  0
    1.7081   -2.3026   -2.1130 N   0  0  0  0  0  0  0  0  0  0  0  0
    1.7235   -2.2787   -3.1323 H   0  0  0  0  0  0  0  0  0  0  0  0
    2.4877   -2.8985   -1.8368 H   0  0  0  0  0  0  0  0  0  0  0  0
    1.1085   -0.3147   -1.9291 H   0  0  0  0  0  0  0  0  0  0  0  0
    4.0609    1.3682   -2.3077 H   0  0  0  0  0  0  0  0  0  0  0  0
  1  2  1  0  0  0  0
  1 25  1  0  0  0  0
  2  3  2  0  0  0  0
  2  4  1  0  0  0  0
  4  5  1  0  0  0  0
  4 21  1  0  0  0  0
  4 24  1  0  0  0  0
  5  6  2  0  0  0  0
  5 19  1  0  0  0  0
  6  7  1  0  0  0  0
  6  8  1  0  0  0  0
  8  9  1  0  0  0  0
  8 10  2  0  0  0  0
 10 11  1  0  0  0  0
 10 17  1  0  0  0  0
 11 12  2  0  0  0  0
 11 13  1  0  0  0  0
 11 15  1  0  0  0  0
 13 14  1  0  0  0  0
 15 16  1  0  0  0  0
 17 18  1  0  0  0  0
 17 19  2  0  0  0  0
 19 20  1  0  0  0  0
 21 22  1  0  0  0  0
 21 23  1  0  0  0  0
M  END
$$$$
