
  -OEChem-12102412493D

 36 37  0     0  0  0  0  0  0999 V2000
    2.0066    0.0629   -2.3671 C   0  0  0  0  0  0  0  0  0  0  0  0
    2.4794   -0.8807   -1.5213 C   0  0  0  0  0  0  0  0  0  0  0  0
    2.2355   -0.8816   -0.0787 C   0  0  0  0  0  0  0  0  0  0  0  0
    1.1499   -0.1596    0.4714 C   0  0  0  0  0  0  0  0  0  0  0  0
    0.4770    0.3737   -0.1928 H   0  0  0  0  0  0  0  0  0  0  0  0
    0.9039   -0.1474    1.8355 C   0  0  0  0  0  0  0  0  0  0  0  0
    0.0685    0.4014    2.2536 H   0  0  0  0  0  0  0  0  0  0  0  0
    1.7532   -0.8755    2.6801 C   0  0  0  0  0  0  0  0  0  0  0  0
    1.4995   -0.8690    4.1129 N   0  3  0  0  0  0  0  0  0  0  0  0
    2.2564   -1.5149    4.8562 O   0  0  0  0  0  0  0  0  0  0  0  0
    0.5296   -0.2128    4.5396 O   0  5  0  0  0  0  0  0  0  0  0  0
    2.8286   -1.6128    2.1725 C   0  0  0  0  0  0  0  0  0  0  0  0
    3.4832   -2.1758    2.8272 H   0  0  0  0  0  0  0  0  0  0  0  0
    3.0662   -1.6215    0.8027 C   0  0  0  0  0  0  0  0  0  0  0  0
    4.4999   -2.6035    0.1937 S   0  0  0  0  0  0  0  0  0  0  0  0
    5.1147   -3.1508    1.4311 O   0  0  0  0  0  0  0  0  0  0  0  0
    3.8783   -3.6267   -0.6927 O   0  0  0  0  0  0  0  0  0  0  0  0
    5.3375   -1.6107   -0.5317 O   0  5  0  0  0  0  0  0  0  0  0  0
    3.0762   -1.7067   -1.8904 H   0  0  0  0  0  0  0  0  0  0  0  0
    2.2502    0.0635   -3.8097 C   0  0  0  0  0  0  0  0  0  0  0  0
    3.3358   -0.6585   -4.3598 C   0  0  0  0  0  0  0  0  0  0  0  0
    4.0090   -1.1915   -3.6958 H   0  0  0  0  0  0  0  0  0  0  0  0
    3.5814   -0.6711   -5.7240 C   0  0  0  0  0  0  0  0  0  0  0  0
    4.4167   -1.2199   -6.1422 H   0  0  0  0  0  0  0  0  0  0  0  0
    2.7316    0.0566   -6.5686 C   0  0  0  0  0  0  0  0  0  0  0  0
    2.9848    0.0497   -8.0015 N   0  3  0  0  0  0  0  0  0  0  0  0
    2.2274    0.6952   -8.7448 O   0  0  0  0  0  0  0  0  0  0  0  0
    3.9547   -0.6064   -8.4283 O   0  5  0  0  0  0  0  0  0  0  0  0
    1.6563    0.7940   -6.0609 C   0  0  0  0  0  0  0  0  0  0  0  0
    1.0014    1.3568   -6.7155 H   0  0  0  0  0  0  0  0  0  0  0  0
    1.4192    0.8031   -4.6910 C   0  0  0  0  0  0  0  0  0  0  0  0
   -0.0140    1.7857   -4.0818 S   0  0  0  0  0  0  0  0  0  0  0  0
   -0.6297    2.3321   -5.3191 O   0  0  0  0  0  0  0  0  0  0  0  0
   -0.8513    0.7936   -3.3550 O   0  0  0  0  0  0  0  0  0  0  0  0
    0.6085    2.8095   -3.1967 O   0  5  0  0  0  0  0  0  0  0  0  0
    1.4098    0.8889   -1.9979 H   0  0  0  0  0  0  0  0  0  0  0  0
  1  2  2  0  0  0  0
  1 20  1  0  0  0  0
  1 36  1  0  0  0  0
  2  3  1  0  0  0  0
  2 19  1  0  0  0  0
  3  4  2  0  0  0  0
  3 14  1  0  0  0  0
  4  5  1  0  0  0  0
  4  6  1  0  0  0  0
  6  7  1  0  0  0  0
  6  8  2  0  0  0  0
  8  9  1  0  0  0  0
  8 12  1  0  0  0  0
  9 10  2  0  0  0  0
  9 11  1  0  0  0  0
 12 13  1  0  0  0  0
 12 14  2  0  0  0  0
 14 15  1  0  0  0  0
 15 16  2  0  0  0  0
 15 17  2  0  0  0  0
 15 18  1  0  0  0  0
 20 21  1  0  0  0  0
 20 31  2  0  0  0  0
 21 22  1  0  0  0  0
 21 23  2  0  0  0  0
 23 24  1  0  0  0  0
 23 25  1  0  0  0  0
 25 26  1  0  0  0  0
 25 29  2  0  0  0  0
 26 27  2  0  0  0  0
 26 28  1  0  0  0  0
 29 30  1  0  0  0  0
 29 31  1  0  0  0  0
 31 32  1  0  0  0  0
 32 33  2  0  0  0  0
 32 34  2  0  0  0  0
 32 35  1  0  0  0  0
M  CHG  6   9   1  11  -1  18  -1  26   1  28  -1  35  -1
M  END
$$$$
