25
0 1 C8H10NO5P
O                     3.261428503830     0.808677818131    -2.153940978624
C                     3.264702475606    -0.547215094330    -2.178916544852
O                     4.222189301673    -1.200101808113    -2.545354945990
C                     1.933831093707    -1.132277646573    -1.691718136788
C                     1.878111167638    -1.066932066419    -0.171232871071
C                     2.966774229595    -1.492858897379     0.600466006536
H                     3.878332183307    -1.834160132152     0.115523295709
C                     2.894710289659    -1.480855237328     1.994877807538
H                     3.736185706958    -1.812370916537     2.596362527830
C                     1.728208985420    -1.034881342674     2.629893619530
P                     1.686210492130    -1.010936153268     4.424349204557
O                     2.934302603588    -1.451790798169     5.094720653062
O                     1.220623982981     0.492381804678     4.871092173618
H                     1.987413858233     1.003729204167     5.183017405566
O                     0.325181644960    -1.833319698197     4.724142080555
H                     0.123067716992    -1.889082498203     5.675001136687
C                     0.635339721363    -0.603935017157     1.862203116416
H                    -0.271013732149    -0.257684372058     2.350298670356
C                     0.714722388501    -0.623975228005     0.471199433613
H                    -0.135626589773    -0.298829810517    -0.122563067145
N                     1.691685100255    -2.500857873706    -2.142452610173
H                     1.770714038887    -2.543501730356    -3.158134689255
H                     2.425672671954    -3.107452995908    -1.778737947641
H                     1.140767342399    -0.491937285237    -2.089214228884
H                     4.147346017191     1.098688281878    -2.446301031521
