
  -OEChem-12102412493D

 37 39  0     0  0  0  0  0  0999 V2000
   -1.8981   -1.6004    0.0229 O   0  0  0  0  0  0  0  0  0  0  0  0
   -0.6133   -1.9959   -0.1042 C   0  0  0  0  0  0  0  0  0  0  0  0
    0.3402   -0.9986   -0.4126 C   0  0  0  0  0  0  0  0  0  0  0  0
   -0.0106    0.0212   -0.5479 H   0  0  0  0  0  0  0  0  0  0  0  0
    1.6683   -1.3390   -0.5007 C   0  0  0  0  0  0  0  0  0  0  0  0
    2.4137   -0.5736   -0.7079 H   0  0  0  0  0  0  0  0  0  0  0  0
    2.1180   -2.6797   -0.3478 C   0  0  0  0  0  0  0  0  0  0  0  0
    3.5025   -2.9548   -0.4737 C   0  0  0  0  0  0  0  0  0  0  0  0
    4.2085   -2.1489   -0.6533 H   0  0  0  0  0  0  0  0  0  0  0  0
    3.9678   -4.2433   -0.3844 C   0  0  0  0  0  0  0  0  0  0  0  0
    5.7653   -4.5607   -0.5109 S   0  0  0  0  0  0  0  0  0  0  0  0
    5.9095   -5.5003   -1.6557 O   0  0  0  0  0  0  0  0  0  0  0  0
    6.3527   -3.2084   -0.7571 O   0  0  0  0  0  0  0  0  0  0  0  0
    6.1308   -5.1452    0.8093 O   0  5  0  0  0  0  0  0  0  0  0  0
    3.0389   -5.2982   -0.2343 C   0  0  0  0  0  0  0  0  0  0  0  0
    3.3870   -6.3249   -0.2772 H   0  0  0  0  0  0  0  0  0  0  0  0
    1.6751   -5.0709   -0.0930 C   0  0  0  0  0  0  0  0  0  0  0  0
    0.6404   -6.6110   -0.0871 S   0  0  0  0  0  0  0  0  0  0  0  0
   -0.5578   -6.2826   -0.9148 O   0  0  0  0  0  0  0  0  0  0  0  0
    1.5243   -7.6299   -0.7086 O   0  0  0  0  0  0  0  0  0  0  0  0
    0.3314   -6.9040    1.3448 O   0  5  0  0  0  0  0  0  0  0  0  0
    1.1726   -3.7292   -0.0845 C   0  0  0  0  0  0  0  0  0  0  0  0
   -0.2086   -3.3355    0.1339 C   0  0  0  0  0  0  0  0  0  0  0  0
   -1.0579   -4.2633    0.7068 N   0  0  0  0  0  0  0  0  0  0  0  0
   -2.2991   -3.9568    0.7804 N   0  0  0  0  0  0  0  0  0  0  0  0
   -3.1132   -4.9071    1.4338 C   0  0  0  0  0  0  0  0  0  0  0  0
   -4.4577   -4.5481    1.6334 C   0  0  0  0  0  0  0  0  0  0  0  0
   -4.7966   -3.5742    1.2864 H   0  0  0  0  0  0  0  0  0  0  0  0
   -5.3376   -5.4304    2.2656 C   0  0  0  0  0  0  0  0  0  0  0  0
   -6.3768   -5.1439    2.4183 H   0  0  0  0  0  0  0  0  0  0  0  0
   -4.8791   -6.6811    2.6970 C   0  0  0  0  0  0  0  0  0  0  0  0
   -5.5609   -7.3752    3.1857 H   0  0  0  0  0  0  0  0  0  0  0  0
   -3.5370   -7.0359    2.4878 C   0  0  0  0  0  0  0  0  0  0  0  0
   -3.1777   -8.0108    2.8110 H   0  0  0  0  0  0  0  0  0  0  0  0
   -2.6456   -6.1656    1.8610 C   0  0  0  0  0  0  0  0  0  0  0  0
   -1.6047   -6.4399    1.6883 H   0  0  0  0  0  0  0  0  0  0  0  0
   -2.4019   -2.4432    0.2981 H   0  0  0  0  0  0  0  0  0  0  0  0
  1  2  1  0  0  0  0
  1 37  1  0  0  0  0
  2  3  1  0  0  0  0
  2 23  2  0  0  0  0
  3  4  1  0  0  0  0
  3  5  2  0  0  0  0
  5  6  1  0  0  0  0
  5  7  1  0  0  0  0
  7  8  2  0  0  0  0
  7 22  1  0  0  0  0
  8  9  1  0  0  0  0
  8 10  1  0  0  0  0
 10 11  1  0  0  0  0
 10 15  2  0  0  0  0
 11 12  2  0  0  0  0
 11 13  2  0  0  0  0
 11 14  1  0  0  0  0
 15 16  1  0  0  0  0
 15 17  1  0  0  0  0
 17 18  1  0  0  0  0
 17 22  2  0  0  0  0
 18 19  2  0  0  0  0
 18 20  2  0  0  0  0
 18 21  1  0  0  0  0
 22 23  1  0  0  0  0
 23 24  1  0  0  0  0
 24 25  2  0  0  0  0
 25 26  1  0  0  0  0
 26 27  1  0  0  0  0
 26 35  2  0  0  0  0
 27 28  1  0  0  0  0
 27 29  2  0  0  0  0
 29 30  1  0  0  0  0
 29 31  1  0  0  0  0
 31 32  1  0  0  0  0
 31 33  2  0  0  0  0
 33 34  1  0  0  0  0
 33 35  1  0  0  0  0
 35 36  1  0  0  0  0
M  CHG  2  14  -1  21  -1
M  END
$$$$
