
  -OEChem-12102412493D

 37 39  0     0  0  0  0  0  0999 V2000
   -1.6783   -1.5292    1.0624 O   0  0  0  0  0  0  0  0  0  0  0  0
   -0.4366   -1.9242    0.6172 C   0  0  0  0  0  0  0  0  0  0  0  0
    0.4504   -0.9379    0.1406 C   0  0  0  0  0  0  0  0  0  0  0  0
    0.1416    0.1041    0.1616 H   0  0  0  0  0  0  0  0  0  0  0  0
    1.6561   -1.3389   -0.3945 C   0  0  0  0  0  0  0  0  0  0  0  0
    2.3371   -0.6035   -0.8181 H   0  0  0  0  0  0  0  0  0  0  0  0
    2.0680   -2.7002   -0.3809 C   0  0  0  0  0  0  0  0  0  0  0  0
    3.3433   -3.0548   -0.8937 C   0  0  0  0  0  0  0  0  0  0  0  0
    3.9776   -2.3029   -1.3549 H   0  0  0  0  0  0  0  0  0  0  0  0
    3.8054   -4.3430   -0.7900 C   0  0  0  0  0  0  0  0  0  0  0  0
    5.4253   -4.7775   -1.5189 S   0  0  0  0  0  0  0  0  0  0  0  0
    5.9664   -3.4726   -2.0078 O   0  0  0  0  0  0  0  0  0  0  0  0
    6.2049   -5.3759   -0.4012 O   0  0  0  0  0  0  0  0  0  0  0  0
    5.0902   -5.7359   -2.6098 O   0  5  0  0  0  0  0  0  0  0  0  0
    3.0420   -5.2972   -0.0707 C   0  0  0  0  0  0  0  0  0  0  0  0
    3.4797   -6.2636    0.1575 H   0  0  0  0  0  0  0  0  0  0  0  0
    1.7828   -5.0017    0.4225 C   0  0  0  0  0  0  0  0  0  0  0  0
    1.0594   -6.2606    1.5732 S   0  0  0  0  0  0  0  0  0  0  0  0
    2.2423   -6.9853    2.0992 O   0  0  0  0  0  0  0  0  0  0  0  0
    0.3424   -5.4451    2.6041 O   0  0  0  0  0  0  0  0  0  0  0  0
    0.1416   -7.1178    0.7715 O   0  5  0  0  0  0  0  0  0  0  0  0
    1.2110   -3.7057    0.1908 C   0  0  0  0  0  0  0  0  0  0  0  0
   -0.1095   -3.2801    0.5592 C   0  0  0  0  0  0  0  0  0  0  0  0
   -1.2168   -4.1024    0.8639 N   0  0  0  0  0  0  0  0  0  0  0  0
   -1.4204   -5.0517    0.0545 N   0  0  0  0  0  0  0  0  0  0  0  0
   -2.5127   -5.8681    0.4363 C   0  0  0  0  0  0  0  0  0  0  0  0
   -3.2944   -6.4291   -0.5811 C   0  0  0  0  0  0  0  0  0  0  0  0
   -3.0253   -6.2283   -1.6149 H   0  0  0  0  0  0  0  0  0  0  0  0
   -4.3936   -7.2279   -0.2547 C   0  0  0  0  0  0  0  0  0  0  0  0
   -5.0094   -7.6526   -1.0457 H   0  0  0  0  0  0  0  0  0  0  0  0
   -4.6898   -7.4988    1.0874 C   0  0  0  0  0  0  0  0  0  0  0  0
   -5.5338   -8.1377    1.3422 H   0  0  0  0  0  0  0  0  0  0  0  0
   -3.8730   -6.9726    2.0995 C   0  0  0  0  0  0  0  0  0  0  0  0
   -4.0746   -7.2211    3.1400 H   0  0  0  0  0  0  0  0  0  0  0  0
   -2.7845   -6.1593    1.7841 C   0  0  0  0  0  0  0  0  0  0  0  0
   -2.0900   -5.7906    2.5331 H   0  0  0  0  0  0  0  0  0  0  0  0
   -2.1041   -2.3607    1.3648 H   0  0  0  0  0  0  0  0  0  0  0  0
  1  2  1  0  0  0  0
  1 37  1  0  0  0  0
  2  3  1  0  0  0  0
  2 23  2  0  0  0  0
  3  4  1  0  0  0  0
  3  5  2  0  0  0  0
  5  6  1  0  0  0  0
  5  7  1  0  0  0  0
  7  8  2  0  0  0  0
  7 22  1  0  0  0  0
  8  9  1  0  0  0  0
  8 10  1  0  0  0  0
 10 11  1  0  0  0  0
 10 15  2  0  0  0  0
 11 12  2  0  0  0  0
 11 13  2  0  0  0  0
 11 14  1  0  0  0  0
 15 16  1  0  0  0  0
 15 17  1  0  0  0  0
 17 18  1  0  0  0  0
 17 22  2  0  0  0  0
 18 19  2  0  0  0  0
 18 20  2  0  0  0  0
 18 21  1  0  0  0  0
 22 23  1  0  0  0  0
 23 24  1  0  0  0  0
 24 25  2  0  0  0  0
 25 26  1  0  0  0  0
 26 27  1  0  0  0  0
 26 35  2  0  0  0  0
 27 28  1  0  0  0  0
 27 29  2  0  0  0  0
 29 30  1  0  0  0  0
 29 31  1  0  0  0  0
 31 32  1  0  0  0  0
 31 33  2  0  0  0  0
 33 34  1  0  0  0  0
 33 35  1  0  0  0  0
 35 36  1  0  0  0  0
M  CHG  2  14  -1  21  -1
M  END
$$$$
