
  -OEChem-12122420533D

 19 19  0     0  0  0  0  0  0999 V2000
    1.9217   -0.9722   -0.1047 C   0  0  0  0  0  0  0  0  0  0  0  0
    1.9794   -0.9125   -1.1881 H   0  0  0  0  0  0  0  0  0  0  0  0
    2.9452   -1.6038    0.6113 C   0  0  0  0  0  0  0  0  0  0  0  0
    3.7909   -2.0382    0.0859 H   0  0  0  0  0  0  0  0  0  0  0  0
    2.8763   -1.6877    2.0043 C   0  0  0  0  0  0  0  0  0  0  0  0
    3.6455   -2.1954    2.5784 H   0  0  0  0  0  0  0  0  0  0  0  0
    1.7731   -1.1279    2.6541 C   0  0  0  0  0  0  0  0  0  0  0  0
    1.6867   -1.2110    4.4452 S   0  0  0  0  0  0  0  0  0  0  0  0
    0.2873   -1.0729    4.8596 O   0  0  0  0  0  0  0  0  0  0  0  0
    2.5387   -2.3094    4.9107 O   0  0  0  0  0  0  0  0  0  0  0  0
    2.5464    0.3731    4.8936 C   0  0  0  0  0  0  0  0  0  0  0  0
    2.6067    0.5365    6.3395 C   0  0  0  0  0  0  0  0  0  0  0  0
    2.6587    0.6742    7.4922 N   0  0  0  0  0  0  0  0  0  0  0  0
    3.5514    0.3264    4.4675 H   0  0  0  0  0  0  0  0  0  0  0  0
    1.9806    1.1879    4.4356 H   0  0  0  0  0  0  0  0  0  0  0  0
    0.7359   -0.5042    1.9557 C   0  0  0  0  0  0  0  0  0  0  0  0
   -0.1226   -0.1123    2.4930 H   0  0  0  0  0  0  0  0  0  0  0  0
    0.8186   -0.4277    0.5631 C   0  0  0  0  0  0  0  0  0  0  0  0
    0.0198    0.0473    0.0008 H   0  0  0  0  0  0  0  0  0  0  0  0
  1  2  1  0  0  0  0
  1  3  1  0  0  0  0
  1 18  2  0  0  0  0
  3  4  1  0  0  0  0
  3  5  2  0  0  0  0
  5  6  1  0  0  0  0
  5  7  1  0  0  0  0
  7  8  1  0  0  0  0
  7 16  2  0  0  0  0
  8  9  2  0  0  0  0
  8 10  2  0  0  0  0
  8 11  1  0  0  0  0
 11 12  1  0  0  0  0
 11 14  1  0  0  0  0
 11 15  1  0  0  0  0
 12 13  3  0  0  0  0
 16 17  1  0  0  0  0
 16 18  1  0  0  0  0
 18 19  1  0  0  0  0
M  END
$$$$
