
  -OEChem-12102412493D

 25 25  0     0  0  0  0  0  0999 V2000
   -0.7019   -0.8273    3.4330 O   0  0  0  0  0  0  0  0  0  0  0  0
   -0.0742   -1.3773    2.3543 C   0  0  0  0  0  0  0  0  0  0  0  0
    0.4423   -2.4800    2.4057 O   0  0  0  0  0  0  0  0  0  0  0  0
   -0.0967   -0.4783    1.1671 C   0  0  0  0  0  0  0  0  0  0  0  0
    0.4756   -0.9449    0.0337 C   0  0  0  0  0  0  0  0  0  0  0  0
    0.8681   -1.9566    0.0409 H   0  0  0  0  0  0  0  0  0  0  0  0
    0.5937   -0.1379   -1.1769 C   0  0  0  0  0  0  0  0  0  0  0  0
    1.0792   -0.6306   -2.3391 C   0  0  0  0  0  0  0  0  0  0  0  0
    1.5848   -2.3265   -2.6105 P   0  0  0  0  0  0  0  0  0  0  0  0
    0.6219   -3.4371   -2.3843 O   0  0  0  0  0  0  0  0  0  0  0  0
    2.9301   -2.4956   -1.7054 O   0  0  0  0  0  0  0  0  0  0  0  0
    2.9367   -3.3663   -1.2698 H   0  0  0  0  0  0  0  0  0  0  0  0
    2.1185   -2.1978   -4.1404 O   0  0  0  0  0  0  0  0  0  0  0  0
    2.0596   -3.0506   -4.6054 H   0  0  0  0  0  0  0  0  0  0  0  0
    1.1416    0.0095   -3.2158 H   0  0  0  0  0  0  0  0  0  0  0  0
    0.1774    1.3127   -1.0548 C   0  0  0  0  0  0  0  0  0  0  0  0
    1.0234    1.8758   -0.6365 H   0  0  0  0  0  0  0  0  0  0  0  0
   -0.0275    1.7316   -2.0440 H   0  0  0  0  0  0  0  0  0  0  0  0
   -1.0337    1.4635   -0.1263 C   0  0  0  0  0  0  0  0  0  0  0  0
   -1.3139    2.5183   -0.0416 H   0  0  0  0  0  0  0  0  0  0  0  0
   -1.8896    0.9351   -0.5626 H   0  0  0  0  0  0  0  0  0  0  0  0
   -0.7363    0.8860    1.2624 C   0  0  0  0  0  0  0  0  0  0  0  0
   -1.6515    0.8218    1.8572 H   0  0  0  0  0  0  0  0  0  0  0  0
   -0.0670    1.5566    1.8191 H   0  0  0  0  0  0  0  0  0  0  0  0
   -0.6252   -1.4862    4.1495 H   0  0  0  0  0  0  0  0  0  0  0  0
  1  2  1  0  0  0  0
  1 25  1  0  0  0  0
  2  3  2  0  0  0  0
  2  4  1  0  0  0  0
  4  5  2  0  0  0  0
  4 22  1  0  0  0  0
  5  6  1  0  0  0  0
  5  7  1  0  0  0  0
  7  8  2  0  0  0  0
  7 16  1  0  0  0  0
  8  9  1  0  0  0  0
  8 15  1  0  0  0  0
  9 10  2  0  0  0  0
  9 11  1  0  0  0  0
  9 13  1  0  0  0  0
 11 12  1  0  0  0  0
 13 14  1  0  0  0  0
 16 17  1  0  0  0  0
 16 18  1  0  0  0  0
 16 19  1  0  0  0  0
 19 20  1  0  0  0  0
 19 21  1  0  0  0  0
 19 22  1  0  0  0  0
 22 23  1  0  0  0  0
 22 24  1  0  0  0  0
M  END
$$$$
