25
0 1 C8H10NO5P
O                     3.186328388481     1.041010336629    -2.020393774825
C                     3.232822824270    -0.312175797356    -2.082087122041
O                     4.207066358927    -0.925176831948    -2.473278141756
C                     1.929225854946    -0.954463837750    -1.592984395700
C                     1.926516128954    -0.969691176575    -0.070177555474
C                     3.027881735304    -1.479573665376     0.634881385105
H                     3.904802331191    -1.828942164390     0.095033702281
C                     3.012860659171    -1.534516399458     2.027109202966
H                     3.869204971820    -1.931534178857     2.564456290631
C                     1.892053367857    -1.070918474766     2.732902768516
P                     1.816226237105    -1.134077277722     4.525220699866
O                     0.540060988866    -0.669208316995     5.122290605817
O                     2.210869503107    -2.658855916903     4.966223472053
H                     1.410939486987    -3.161025536731     5.200225676945
O                     3.177476629607    -0.359215857184     4.933260965391
H                     3.317760010584    -0.332404019576     5.896453702941
C                     0.791259235852    -0.556773865708     2.035071139776
H                    -0.071980954366    -0.199156118408     2.588800051021
C                     0.813329232895    -0.509969168028     0.639757753101
H                    -0.044022738999    -0.116081313077     0.100177527023
N                     1.708110559787    -2.302551936697    -2.113002797711
H                     1.723533302590    -2.278675079944    -3.132314169899
H                     2.487650526005    -2.898477899105    -1.836809780655
H                     1.108522320658    -0.314688674718    -1.929103831973
H                     4.060937310765     1.368225292103    -2.307688151871
