22
0 1 C7H10N2O2S
C                     1.900105693427    -1.043994509798    -0.170296857129
H                     1.933487636530    -1.028002668656    -1.256064684730
C                     2.954203228072    -1.647399995195     0.527507513692
H                     3.790741670709    -2.092010136676     0.000367402446
C                     2.918680964240    -1.671880151011     1.918889976251
S                     4.218582831980    -2.419881330101     2.900373364247
O                     4.892228770854    -1.357587443725     3.653724350309
O                     3.660517144157    -3.591712634208     3.582412953284
N                     5.305426027050    -2.981549973880     1.723693161733
H                     6.205298970061    -2.522839275900     1.859959489711
H                     5.394939897722    -3.992854286317     1.813172276046
C                     1.848460717636    -1.103992733071     2.623369674163
H                     1.829357949508    -1.127805612299     3.709023564619
C                     0.811896967148    -0.509820860823     1.911872292671
H                    -0.020727945427    -0.067846222938     2.455763460896
C                     0.820380450434    -0.469983559012     0.505861403471
C                    -0.344927157020     0.195588384486    -0.221911336437
N                    -0.325991667100     0.232855641922    -1.681039541764
H                     0.497942007217     0.725807174660    -2.019672680916
H                    -0.293512246313    -0.708861703267    -2.066585875799
H                    -1.272387044666    -0.300695160185     0.087671053370
H                    -0.430569858266     1.227900577094     0.137689592420
