25
0 1 C8H11O5P
O                     3.313921380265    -0.081000832839     1.541695529713
C                     2.398215799076     0.850532221758     1.140447618820
O                     2.610133862019     2.044117307773     1.251530286923
C                     1.172519462027     0.223806812163     0.569398732178
C                     0.214465580245     1.056786146467     0.098512825479
H                     0.353007153266     2.129871792414     0.192730044366
C                    -0.997579138376     0.554915755184    -0.549971996470
C                    -2.033915284454     1.340711395090    -0.927700123517
P                    -2.190983415122     3.108109778911    -0.723554186810
O                    -1.072040901964     3.860076262761    -0.101536882734
O                    -3.604036679310     3.323706904078     0.073283487027
H                    -3.429265983413     3.613827394351     0.985488820264
O                    -2.623250731002     3.524116706799    -2.228119473651
H                    -2.743658660455     4.485450767606    -2.326443356407
H                    -2.896865168054     0.879771458733    -1.405746088924
C                    -1.038112996149    -0.934574071982    -0.826467189589
H                    -2.067464860313    -1.259292708050    -1.002526617205
H                    -0.478861549200    -1.123085833131    -1.753570750469
C                    -0.393771451839    -1.726942473852     0.316060111544
H                    -0.968463660075    -1.564967203532     1.235994120277
H                    -0.429113991216    -2.799248445972     0.098167177508
C                     1.055210568948    -1.281527051658     0.536485984049
H                     1.699489236421    -1.672431373744    -0.263362565239
H                     1.451274141292    -1.702377406261     1.464713252736
H                     4.072600297112     0.427711645149     1.886404141836
