20
0 1 C7FH8O3P
O                     2.056917146689    -3.629142391381    -2.060343018784
P                     1.137316524890    -2.365790899418    -2.493033597056
O                    -0.308676316712    -2.484432520010    -2.186106750786
O                     1.507320633200    -2.194626017035    -4.059213457792
H                     0.705392248137    -2.101447123211    -4.601869738078
C                     2.056103409725    -0.976787871604    -1.700437855365
F                     1.491007761412     0.210299600903    -2.197496761068
C                     1.974115957727    -1.035422103574    -0.200911457425
C                     3.087752511537    -1.437333973113     0.546823778366
H                     4.018724193782    -1.683425787019     0.041421145078
C                     3.005156759752    -1.526708659595     1.939442007297
H                     3.873430118466    -1.837405718862     2.514345759415
C                     1.809427754602    -1.205825240654     2.589588064680
H                     1.745488320008    -1.268628928660     3.672826536342
C                     0.695534782683    -0.802298999614     1.843466734713
H                    -0.235474666940    -0.555460484913     2.346708843286
C                     0.772017050696    -0.723696725984     0.451772343356
H                    -0.094625008138    -0.428779926934    -0.131511273857
H                     3.094313404057    -1.017573384891    -2.044236076307
H                     1.548594164295    -4.270502672997    -1.534855797846
