22
0 1 C7H10N2O2S
C                     1.842481920049    -1.012497464169    -0.131520894299
H                     1.838395042117    -0.975588629042    -1.219359349991
C                     2.912554145203    -1.623893430196     0.522373632190
H                     3.734991168781    -2.060072328765    -0.033128472511
C                     2.913155565686    -1.668719105651     1.918415949889
S                     4.238309399495    -2.430110833594     2.855852987000
O                     4.930226377509    -1.378061230629     3.607508198231
O                     3.697958135763    -3.612240381313     3.534920388732
N                     5.295047327335    -2.973635731812     1.643724203288
H                     6.197975485555    -2.516044502929     1.762374624097
H                     5.387285820337    -3.986148737916     1.714838021417
C                     1.864910016602    -1.113699901614     2.655720504888
H                     1.874603109031    -1.153606673809     3.741101874372
C                     0.803398270018    -0.506393512323     1.982157334620
H                    -0.008606474653    -0.076712756440     2.561749374570
C                     0.775753295809    -0.446544056640     0.583118450423
C                    -0.368393250546     0.209548084596    -0.186775959355
N                    -1.473016080214     0.793705780850     0.567471034852
H                    -1.929322869004     0.090365142176     1.145032007998
H                    -1.138769497341     1.525636969908     1.191192321297
H                     0.052675897665     0.995757329409    -0.824590166272
H                    -0.789938674123    -0.532723100156    -0.874932408314
