
  -OEChem-12122420533D

 19 19  0     0  0  0  0  0  0999 V2000
    1.8973   -1.0226   -0.1225 C   0  0  0  0  0  0  0  0  0  0  0  0
    1.9464   -0.9839   -1.2074 H   0  0  0  0  0  0  0  0  0  0  0  0
    2.9240   -1.6447    0.5967 C   0  0  0  0  0  0  0  0  0  0  0  0
    3.7667   -2.0878    0.0741 H   0  0  0  0  0  0  0  0  0  0  0  0
    2.8688   -1.7009    1.9911 C   0  0  0  0  0  0  0  0  0  0  0  0
    3.6486   -2.1873    2.5677 H   0  0  0  0  0  0  0  0  0  0  0  0
    1.7745   -1.1197    2.6376 C   0  0  0  0  0  0  0  0  0  0  0  0
    1.7085   -1.1531    4.4260 S   0  0  0  0  0  0  0  0  0  0  0  0
    0.3240   -0.9319    4.8624 O   0  0  0  0  0  0  0  0  0  0  0  0
    2.5100   -2.2779    4.9164 O   0  0  0  0  0  0  0  0  0  0  0  0
    2.6035    0.3993    4.9076 C   0  0  0  0  0  0  0  0  0  0  0  0
    3.9645    0.4306    4.3942 C   0  0  0  0  0  0  0  0  0  0  0  0
    5.0407    0.4369    3.9546 N   0  0  0  0  0  0  0  0  0  0  0  0
    2.0172    1.2409    4.5323 H   0  0  0  0  0  0  0  0  0  0  0  0
    2.5903    0.3962    6.0013 H   0  0  0  0  0  0  0  0  0  0  0  0
    0.7353   -0.5005    1.9376 C   0  0  0  0  0  0  0  0  0  0  0  0
   -0.1123   -0.0872    2.4758 H   0  0  0  0  0  0  0  0  0  0  0  0
    0.8043   -0.4554    0.5434 C   0  0  0  0  0  0  0  0  0  0  0  0
    0.0039    0.0142   -0.0212 H   0  0  0  0  0  0  0  0  0  0  0  0
  1  2  1  0  0  0  0
  1  3  1  0  0  0  0
  1 18  2  0  0  0  0
  3  4  1  0  0  0  0
  3  5  2  0  0  0  0
  5  6  1  0  0  0  0
  5  7  1  0  0  0  0
  7  8  1  0  0  0  0
  7 16  2  0  0  0  0
  8  9  2  0  0  0  0
  8 10  2  0  0  0  0
  8 11  1  0  0  0  0
 11 12  1  0  0  0  0
 11 14  1  0  0  0  0
 11 15  1  0  0  0  0
 12 13  3  0  0  0  0
 16 17  1  0  0  0  0
 16 18  1  0  0  0  0
 18 19  1  0  0  0  0
M  END
$$$$
