37
-2 1 C16H10N2O7S2
O                    -1.510810567488    -1.372911240972     1.343611905341
C                    -0.284690465328    -1.823691324141     0.877797770615
C                     0.599314337005    -0.868146895944     0.328382241024
H                     0.322545437558     0.186891293528     0.351207924291
C                     1.786184211843    -1.274058117505    -0.230836534524
H                     2.466342115512    -0.546957485572    -0.668771105492
C                     2.156287191623    -2.642631899260    -0.255299560873
C                     3.389531061517    -2.991321151699    -0.864289262871
H                     4.025032144887    -2.220190298202    -1.290428383853
C                     3.793923195227    -4.298473593909    -0.921745472285
S                     5.378252712433    -4.716623329659    -1.734443216848
O                     5.912143129890    -3.395371463389    -2.186647183596
O                     6.193174525311    -5.363940474466    -0.670219204221
O                     4.995130549784    -5.625258124335    -2.850269299576
C                     2.980773353406    -5.293810735445    -0.329741644361
H                     3.323663061746    -6.322774950844    -0.315347452719
C                     1.768276690989    -5.002000942179     0.277143281740
S                     0.953564691584    -6.477440119549     1.055754780083
O                     2.030774088531    -7.498502417416     1.111729568480
O                     0.509611719405    -6.008533658415     2.399334670203
O                    -0.162809883324    -6.860492563100     0.140487611630
C                     1.286671670166    -3.643577075663     0.311393091344
C                     0.026585450306    -3.191215996201     0.869066362514
N                    -0.953213619547    -4.142441057750     1.198640543455
N                    -1.704678999037    -3.858040491573     2.170488879179
C                    -2.721606131552    -4.827992245590     2.388534618426
C                    -3.736880606595    -4.456406971650     3.283367751767
H                    -3.686174676932    -3.468752456609     3.735623588466
C                    -4.780067597262    -5.340639404853     3.574870638127
H                    -5.568689429771    -5.045492270839     4.265424926613
C                    -4.799200957124    -6.609963952831     2.983972981076
H                    -5.601914207243    -7.308712471049     3.215586437706
C                    -3.770454106557    -6.983162672212     2.104358936688
H                    -3.771516609727    -7.977577553122     1.662028247209
C                    -2.730127604470    -6.105901323243     1.796938098201
H                    -1.913816431534    -6.391732329506     1.134377993256
H                    -1.656081994020    -0.510056588103     0.923738406578
