22
0 1 C7H10N2O2S
C                     1.860278684113    -1.061831348452    -0.119086187659
H                     1.881671413702    -1.076757844742    -1.206840191960
C                     2.917799302089    -1.628310662877     0.593591708813
H                     3.754828080329    -2.093404857300     0.082415201813
C                     2.871268199610    -1.616378002532     1.988907291573
S                     4.226114902267    -2.333445048251     2.915702236304
O                     3.721779746415    -2.698442309340     4.242963433687
O                     4.916697152477    -3.286266843824     2.041386081311
N                     5.281218302246    -1.017173316337     3.136929489486
H                     5.396417746794    -0.845579250069     4.135085055305
H                     6.176477380907    -1.229394428485     2.698179789817
C                     1.786625640889    -1.070989183424     2.678352715674
H                     1.758017807578    -1.109642318932     3.762750281223
C                     0.738990376006    -0.509405932972     1.947465318081
H                    -0.116299641011    -0.092417508361     2.475186497655
C                     0.763808480263    -0.489164089731     0.544200429970
C                    -0.344138333719     0.191674870300    -0.238922997316
N                    -0.120137842697     1.625479533049    -0.500528530170
H                     0.001185806753     2.116913920016     0.384649537416
H                     0.755657584855     1.744727818271    -1.008980901684
H                    -0.477015858466    -0.305631314622    -1.205026124856
H                    -1.292952358061     0.096139137599     0.298627294399
