25
0 1 C8H11O5P
O                    -0.701875167058    -0.827277396941     3.433041154801
C                    -0.074247145187    -1.377278069524     2.354303610489
O                     0.442302976468    -2.479956305237     2.405669604054
C                    -0.096723148152    -0.478250243686     1.167103126897
C                     0.475635441502    -0.944882200624     0.033665306916
H                     0.868083870938    -1.956625682520     0.040911415130
C                     0.593680642336    -0.137854267076    -1.176894715080
C                     1.079216481439    -0.630613533859    -2.339066317840
P                     1.584752266297    -2.326546604173    -2.610515520499
O                     0.621891767367    -3.437103738208    -2.384313985662
O                     2.930062481228    -2.495574282679    -1.705392912012
H                     2.936706735033    -3.366342108679    -1.269834119174
O                     2.118548082744    -2.197803847896    -4.140403741365
H                     2.059562990408    -3.050618321003    -4.605445282655
H                     1.141643236518     0.009514955505    -3.215790567815
C                     0.177426006596     1.312739447574    -1.054790788542
H                     1.023444187994     1.875828514114    -0.636537535146
H                    -0.027546822420     1.731563550886    -2.044026654425
C                    -1.033688481989     1.463526033081    -0.126251342343
H                    -1.313930085715     2.518347979577    -0.041590296573
H                    -1.889564515141     0.935064619256    -0.562592322600
C                    -0.736340468206     0.885998588602     1.262376980380
H                    -1.651499980847     0.821789617595     1.857188802504
H                    -0.066966471117     1.556613088199     1.819126858484
H                    -0.625199347188    -1.486248897215     4.149464371775
