22
0 1 C7H10N2O2S
C                     1.889290364303    -0.991768306926    -0.121321945499
H                     1.925747636641    -0.977905186950    -1.208710150761
C                     2.930844837983    -1.588435958821     0.590340650410
H                     3.767866975049    -2.052349670014     0.078055368983
C                     2.874383603436    -1.596492946442     1.985280803106
S                     4.212477841503    -2.345906917557     2.911229032549
O                     3.694692911285    -2.715036168935     4.232520962826
O                     4.889762873846    -3.302472742439     2.030074336338
N                     5.289014580131    -1.051076906458     3.149993911715
H                     5.402234235147    -0.889636883013     4.150028432348
H                     6.182413103470    -1.273213809973     2.712447661567
C                     1.800180419888    -1.031654462378     2.675322678716
H                     1.771444462191    -1.069278443463     3.759766928278
C                     0.768544970848    -0.439875032049     1.945394658239
H                    -0.071499572441     0.005588069010     2.474372855943
C                     0.797298962904    -0.411202072899     0.542398316979
C                    -0.366354600634     0.166704828682    -0.242981812980
N                    -1.433379622322    -0.798643692156    -0.564122512590
H                    -1.040138474841    -1.576172488634    -1.093746343534
H                    -1.796252337453    -1.203525118990     0.298479563997
H                    -0.820563222951     0.990009919848     0.317739645926
H                    -0.004796054771     0.588730581121    -1.186233428115
