19
0 1 C8H7NO2S
C                     1.892325989372    -1.019009227876    -0.122623970150
H                     1.936875386698    -0.977322282377    -1.207574584093
C                     2.931339518131    -1.627331764414     0.591646247008
H                     3.774923214480    -2.063604581354     0.064412831235
C                     2.881268849834    -1.683339150126     1.986307031179
H                     3.663770192267    -2.168798306160     2.561497380382
C                     1.779129454108    -1.122566673245     2.637579765053
S                     1.723676508526    -1.162077329840     4.426297201121
O                     0.328368874008    -1.076483270562     4.866596723254
O                     2.634051645338    -2.205540318172     4.914710531268
C                     2.541246493503     0.433022790433     4.906283897490
C                     1.859617122639     1.590079794908     4.346230143805
N                     1.306405836667     2.494620911725     3.869660371144
H                     2.507121204588     0.441311473004     5.999520754497
H                     3.578380977488     0.380033080098     4.568134897277
C                     0.726901984100    -0.520351439689     1.942351275432
H                    -0.120284398325    -0.110102684827     2.481969639311
C                     0.793817532494    -0.470002217800     0.548251302685
H                    -0.011877408952    -0.004256717358    -0.011668902548
