
  -OEChem-12102412493D

 22 22  0     1  0  0  0  0  0999 V2000
   -1.6701    2.0204    0.3471 O   0  0  0  0  0  0  0  0  0  0  0  0
   -1.5824    0.6756    0.6209 C   0  0  0  0  0  0  0  0  0  0  0  0
   -2.5565    0.0306    0.9532 O   0  0  0  0  0  0  0  0  0  0  0  0
   -0.1938    0.1643    0.3776 C   0  0  1  0  0  0  0  0  0  0  0  0
    0.9436    0.9120    0.8452 N   0  0  0  0  0  0  0  0  0  0  0  0
    1.0306    1.8254    0.3991 H   0  0  0  0  0  0  0  0  0  0  0  0
    0.9070    1.0277    1.8549 H   0  0  0  0  0  0  0  0  0  0  0  0
   -0.0002   -1.3313    0.2611 C   0  0  0  0  0  0  0  0  0  0  0  0
    0.9721   -1.6824    0.5890 H   0  0  0  0  0  0  0  0  0  0  0  0
   -0.8448   -1.9753    0.4811 H   0  0  0  0  0  0  0  0  0  0  0  0
   -0.0714   -0.5083   -0.9975 C   0  0  2  0  0  0  0  0  0  0  0  0
    1.0997   -0.1592   -1.8926 C   0  0  0  0  0  0  0  0  0  0  0  0
    0.9213    1.5655   -2.4603 P   0  0  0  0  0  0  0  0  0  0  0  0
    1.4938    2.6174   -1.5760 O   0  0  0  0  0  0  0  0  0  0  0  0
   -0.6733    1.7852   -2.7185 O   0  0  0  0  0  0  0  0  0  0  0  0
   -1.0788    2.2104   -1.9377 H   0  0  0  0  0  0  0  0  0  0  0  0
    1.5076    1.4926   -3.9658 O   0  0  0  0  0  0  0  0  0  0  0  0
    1.6728    2.3780   -4.3359 H   0  0  0  0  0  0  0  0  0  0  0  0
    1.1355   -0.8208   -2.7632 H   0  0  0  0  0  0  0  0  0  0  0  0
    2.0506   -0.2214   -1.3599 H   0  0  0  0  0  0  0  0  0  0  0  0
   -1.0126   -0.5867   -1.5332 H   0  0  0  0  0  0  0  0  0  0  0  0
   -2.5941    2.2731    0.5390 H   0  0  0  0  0  0  0  0  0  0  0  0
  1  2  1  0  0  0  0
  1 22  1  0  0  0  0
  2  3  2  0  0  0  0
  2  4  1  0  0  0  0
  4  5  1  0  0  0  0
  4  8  1  0  0  0  0
  4 11  1  0  0  0  0
  5  6  1  0  0  0  0
  5  7  1  0  0  0  0
  8  9  1  0  0  0  0
  8 10  1  0  0  0  0
  8 11  1  0  0  0  0
 11 12  1  0  0  0  0
 11 21  1  0  0  0  0
 12 13  1  0  0  0  0
 12 19  1  0  0  0  0
 12 20  1  0  0  0  0
 13 14  2  0  0  0  0
 13 15  1  0  0  0  0
 13 17  1  0  0  0  0
 15 16  1  0  0  0  0
 17 18  1  0  0  0  0
M  END
$$$$
