
  -OEChem-12102412493D

 15 15  0     0  0  0  0  0  0999 V2000
    0.1356    1.6871    0.7482 C   0  0  0  0  0  0  0  0  0  0  0  0
   -0.3392    2.6393    1.0002 H   0  0  0  0  0  0  0  0  0  0  0  0
    1.0403    1.5951    1.3586 H   0  0  0  0  0  0  0  0  0  0  0  0
    0.5051    1.6153   -0.7484 C   0  0  0  0  0  0  0  0  0  0  0  0
   -0.3686    1.8678   -1.3589 H   0  0  0  0  0  0  0  0  0  0  0  0
    1.3012    2.3211   -1.0006 H   0  0  0  0  0  0  0  0  0  0  0  0
    0.9406    0.1756   -1.0313 C   0  0  0  0  0  0  0  0  0  0  0  0
    0.8164   -0.1431   -2.0669 H   0  0  0  0  0  0  0  0  0  0  0  0
    1.9577   -0.0274   -0.6899 H   0  0  0  0  0  0  0  0  0  0  0  0
   -0.1685   -0.8691    0.0000 S   0  0  0  0  0  0  0  0  0  0  0  0
    0.6458   -1.7705    0.8344 O   0  0  0  0  0  0  0  0  0  0  0  0
   -1.2608   -1.4002   -0.8346 O   0  0  0  0  0  0  0  0  0  0  0  0
   -0.8063    0.5144    1.0316 C   0  0  0  0  0  0  0  0  0  0  0  0
   -0.8098    0.1725    2.0671 H   0  0  0  0  0  0  0  0  0  0  0  0
   -1.8257    0.7063    0.6905 H   0  0  0  0  0  0  0  0  0  0  0  0
  1  2  1  0  0  0  0
  1  3  1  0  0  0  0
  1  4  1  0  0  0  0
  1 13  1  0  0  0  0
  4  5  1  0  0  0  0
  4  6  1  0  0  0  0
  4  7  1  0  0  0  0
  7  8  1  0  0  0  0
  7  9  1  0  0  0  0
  7 10  1  0  0  0  0
 10 11  2  0  0  0  0
 10 12  2  0  0  0  0
 10 13  1  0  0  0  0
 13 14  1  0  0  0  0
 13 15  1  0  0  0  0
M  END
$$$$
