
  -OEChem-12102412493D

 21 21  0     1  0  0  0  0  0999 V2000
    0.6603   -1.2340   -2.2304 O   0  0  0  0  0  0  0  0  0  0  0  0
    1.9687   -1.1298   -1.6799 C   0  0  2  0  0  0  0  0  0  0  0  0
    1.9037   -1.1015   -0.1729 C   0  0  0  0  0  0  0  0  0  0  0  0
    2.9156   -1.7056    0.5842 C   0  0  0  0  0  0  0  0  0  0  0  0
    3.7258   -2.2303    0.0830 H   0  0  0  0  0  0  0  0  0  0  0  0
    2.8863   -1.6388    1.9804 C   0  0  0  0  0  0  0  0  0  0  0  0
    3.6722   -2.1146    2.5612 H   0  0  0  0  0  0  0  0  0  0  0  0
    1.8417   -0.9697    2.6262 C   0  0  0  0  0  0  0  0  0  0  0  0
    1.8144   -0.9211    3.7117 H   0  0  0  0  0  0  0  0  0  0  0  0
    0.8302   -0.3659    1.8703 C   0  0  0  0  0  0  0  0  0  0  0  0
    0.0178    0.1565    2.3687 H   0  0  0  0  0  0  0  0  0  0  0  0
    0.8621   -0.4245    0.4754 C   0  0  0  0  0  0  0  0  0  0  0  0
    0.0861    0.0488   -0.1169 H   0  0  0  0  0  0  0  0  0  0  0  0
    2.7840    0.4106   -2.2880 P   0  0  0  0  0  0  0  0  0  0  0  0
    2.2880    1.7390   -1.8534 O   0  0  0  0  0  0  0  0  0  0  0  0
    4.3590    0.1566   -1.9593 O   0  0  0  0  0  0  0  0  0  0  0  0
    4.6833    0.8211   -1.3268 H   0  0  0  0  0  0  0  0  0  0  0  0
    2.6819    0.1186   -3.8895 O   0  0  0  0  0  0  0  0  0  0  0  0
    2.7473    0.9356   -4.4152 H   0  0  0  0  0  0  0  0  0  0  0  0
    2.6084   -1.9616   -2.0071 H   0  0  0  0  0  0  0  0  0  0  0  0
    0.7373   -1.1910   -3.1988 H   0  0  0  0  0  0  0  0  0  0  0  0
  1  2  1  0  0  0  0
  1 21  1  0  0  0  0
  2  3  1  0  0  0  0
  2 14  1  0  0  0  0
  2 20  1  0  0  0  0
  3  4  1  0  0  0  0
  3 12  2  0  0  0  0
  4  5  1  0  0  0  0
  4  6  2  0  0  0  0
  6  7  1  0  0  0  0
  6  8  1  0  0  0  0
  8  9  1  0  0  0  0
  8 10  2  0  0  0  0
 10 11  1  0  0  0  0
 10 12  1  0  0  0  0
 12 13  1  0  0  0  0
 14 15  2  0  0  0  0
 14 16  1  0  0  0  0
 14 18  1  0  0  0  0
 16 17  1  0  0  0  0
 18 19  1  0  0  0  0
M  END
$$$$
