30   
torsion grid (-165,)
C        0.9924592752   -3.8211303352   -0.1731082858
C        1.6305875438   -3.8310017233    1.0702287404
C        1.1055555314   -2.6871243477   -0.9838044814
C        5.5032873306    0.2096477658    2.0943179694
C        5.4188725533    1.4759599784    1.5110333094
C        2.3594985230   -2.7195372615    1.4972354952
C        1.8298541016   -1.5771169966   -0.5501457944
C        4.4939934890   -0.7279457230    1.8731473857
C        4.2970207186    1.7936649633    0.7466143912
C       -0.2285338676    2.3868310922   -1.1797109808
C       -0.2581836985    1.5974646700   -0.0269430947
C        1.0341229316    2.6516792273   -1.7098662859
C        2.4438194084   -1.5506770594    0.7176903004
C        3.3470749690   -0.4317916334    1.1129781785
C        3.2565559897    0.8723933371    0.5625465755
C        2.0156783570    1.3943505494   -0.0737873273
N        0.8484145714    1.1035764933    0.5326433058
N        2.1575306214    2.1648380825   -1.1688274143
H        0.4290419016   -4.6869923978   -0.5110606333
H        1.5650175766   -4.7068729400    1.7108171908
H        0.6455525772   -2.6731280709   -1.9688326639
H        6.3702283273   -0.0641975408    2.6902480808
H        6.2107278759    2.2065258112    1.6525819902
H        2.8209906401   -2.7481551545    2.4798197574
H        1.9490257673   -0.7408003741   -1.2293908465
H        4.6319640640   -1.7329593465    2.2567640540
H        4.1972438369    2.7778932627    0.2994846886
H       -1.1344676364    2.7796973390   -1.6306271739
H       -1.1989298769    1.3562973579    0.4667873289
H        1.1542302779    3.2711916872   -2.5979648776
30   
torsion grid (-150,)
C        0.9306267385   -3.7562726511   -0.1486592773
C        1.4587381230   -3.6979532108    1.1444909777
C        1.1996451181   -2.7159854717   -1.0453456161
C        5.5618103666    0.1993818761    2.0164437113
C        5.4256349936    1.4955672058    1.5116053235
C        2.2398401889   -2.6082930356    1.5365475992
C        1.9753858622   -1.6270412310   -0.6485939809
C        4.5720420316   -0.7520905339    1.7663122801
C        4.2808331507    1.8293852241    0.7885537278
C       -0.2711148527    2.3095545133   -1.1515868949
C       -0.2784915090    1.4451254785   -0.0538975668
C        0.9842335065    2.6847875276   -1.6303255958
C        2.4897497466   -1.5408058935    0.6580449219
C        3.4077136872   -0.4364138693    1.0446512403
C        3.2624711220    0.8900332901    0.5710958461
C        2.0043781110    1.3826635648   -0.0534724523
N        0.8440384504    0.9829924748    0.5010784143
N        2.1227271231    2.2310809620   -1.0926806182
H        0.3258376926   -4.6050440361   -0.4574270995
H        1.2621694958   -4.5008254314    1.8506645246
H        0.8163975562   -2.7603059047   -2.0618438986
H        6.4498667565   -0.0807126694    2.5773630192
H        6.1999188122    2.2388261372    1.6818214124
H        2.6230623874   -2.5664729120    2.5526328430
H        2.2066463736   -0.8492824326   -1.3701017339
H        4.7263803170   -1.7755748393    2.0945785468
H        4.1483799784    2.8345672001    0.4004654167
H       -1.1891301923    2.6764873989   -1.5998946517
H       -1.2132306847    1.1156922966    0.3985069901
H        1.0856198384    3.3681669302   -2.4727574589
30   
torsion grid (-135,)
C        0.8660416653   -3.6869647454   -0.1287682203
C        1.2890401886   -3.5496081324    1.1971302669
C        1.2928104915   -2.7605304928   -1.0873707270
C        5.6255578581    0.1861286434    1.9582323024
C        5.4418374790    1.5035582421    1.5272390387
C        2.1270196023   -2.4925138879    1.5618268814
C        2.1260611777   -1.7036663398   -0.7196917862
C        4.6553978777   -0.7775583302    1.6774780052
C        4.2756020487    1.8454670624    0.8431975508
C       -0.2955022967    2.2378845510   -1.1060358391
C       -0.2768983257    1.3043995306   -0.0668403471
C        0.9470279511    2.7079861591   -1.5319381006
C        2.5446402721   -1.5477955307    0.6125148903
C        3.4758296636   -0.4519177191    0.9886964125
C        3.2785327880    0.8906711391    0.5919099363
C        2.0059261343    1.3604213788   -0.0200543981
N        0.8584838030    0.8660043901    0.4816651991
N        2.0977580658    2.2798640628   -1.0000340977
H        0.2156067775   -4.5099640995   -0.4138233789
H        0.9626261056   -4.2632060197    1.9496271401
H        0.9825773036   -2.8670012757   -2.1239899887
H        6.5304135764   -0.0958999654    2.4906093844
H        6.1982234184    2.2582864863    1.7255809863
H        2.4346541121   -2.3788314991    2.5981916618
H        2.4670875580   -0.9978770074   -1.4725755461
H        4.8263325681   -1.8124160985    1.9612614874
H        4.1109507557    2.8659076887    0.5114865522
H       -1.2232614980    2.5853502136   -1.5498142360
H       -1.2007206602    0.8980258768    0.3434063654
H        1.0274563836    3.4494679600   -2.3261376518
30   
torsion grid (-120,)
C        0.8208593244   -3.6404500845   -0.1182860982
C        1.1220083495   -3.3913596825    1.2250096878
C        1.4057347440   -2.8505216125   -1.1144025806
C        5.6773227560    0.1854415227    1.8824528452
C        5.4472045954    1.5167118836    1.5214054315
C        1.9978658234   -2.3584244362    1.5691943300
C        2.2792624412   -1.8177535809   -0.7677964447
C        4.7229807239   -0.7890443385    1.5832252097
C        4.2561253164    1.8610220625    0.8835014441
C       -0.3308911497    2.1921342389   -1.0554433068
C       -0.2861131690    1.1851787044   -0.0887639472
C        0.8952905228    2.7526629241   -1.4151546910
C        2.5821172637   -1.5582382027    0.5776841500
C        3.5210491527   -0.4604171994    0.9381269100
C        3.2767868843    0.8923085827    0.6107983559
C        1.9909264369    1.3467462120    0.0157746351
N        0.8593591467    0.7626850268    0.4516427322
N        2.0549909743    2.3418332595   -0.8906589574
H        0.1393820600   -4.4438329029   -0.3865674875
H        0.6685335423   -3.9971469630    2.0057538606
H        1.1839996658   -3.0417593508   -2.1615366411
H        6.6018089804   -0.0962870162    2.3801543416
H        6.1887107542    2.2811250074    1.7382183202
H        2.2125779210   -2.1519281112    2.6144891239
H        2.7331017139   -1.2053176544   -1.5431170538
H        4.9165598014   -1.8307459874    1.8252779411
H        4.0592819775    2.8906275247    0.6018840165
H       -1.2657145598    2.5270328000   -1.4940102395
H       -1.1959406766    0.7046494477    0.2693072733
H        0.9541063631    3.5556740220   -2.1491536086
30   
torsion grid (-105,)
C        0.8165973047   -3.6332510730   -0.1191712265
C        0.9658406296   -3.2373180485    1.2151983825
C        1.5627177777   -2.9969163236   -1.1160619640
C        5.7314355868    0.1740470832    1.7860946071
C        5.4629394892    1.5168742405    1.5031519822
C        1.8513288431   -2.2095739883    1.5466785117
C        2.4508823631   -1.9703580490   -0.7803618052
C        4.7810027137   -0.8018797434    1.4776695753
C        4.2439985750    1.8676110543    0.9250445116
C       -0.3574392507    2.1885489469   -0.9887733019
C       -0.2947630626    1.1279740499   -0.0829599633
C        0.8556898637    2.8065215382   -1.2960398537
C        2.6031107238   -1.5675157375    0.5534174060
C        3.5485531965   -0.4649884650    0.8990089822
C        3.2704955493    0.8954965367    0.6393517792
C        1.9750362507    1.3499308586    0.0652356225
N        0.8562246131    0.7092934011    0.4493018956
N        2.0198490301    2.3991311868   -0.7801221091
H        0.1256312208   -4.4314818909   -0.3786317026
H        0.3850735620   -3.7231886242    1.9955646646
H        1.4555862906   -3.3004188960   -2.1546500929
H        6.6788950185   -0.1139752143    2.2345765849
H        6.1979218879    2.2844875370    1.7308431880
H        1.9476883195   -1.8838876987    2.5788389685
H        3.0277192845   -1.4724610639   -1.5560189922
H        4.9952946498   -1.8497277274    1.6707639530
H        4.0231110482    2.9046265109    0.6933785129
H       -1.2961298984    2.5207188904   -1.4210765650
H       -1.1937359761    0.5996179315    0.2327332857
H        0.8994404151    3.6538547624   -1.9795601390
30   
torsion grid (-90,)
C        1.0367188105   -3.7380756491   -0.3048532073
C        0.9751820944   -3.2096969296    0.9873566152
C        1.9153328743   -3.1770318046   -1.2401992117
C        5.7061357461    0.1956405244    1.8072658389
C        5.3444501076    1.5451705207    1.7513425448
C        1.7884517687   -2.1268262568    1.3415069819
C        2.7186537420   -2.0916072485   -0.8870047348
C        4.8158212142   -0.7796948832    1.3528323637
C        4.0985863555    1.9016217817    1.2387888909
C       -0.4654507119    2.2419281952   -0.7504553869
C        0.1768125157    2.8838959461    0.3099388649
C        0.2040873992    1.1484115723   -1.3019134244
C        2.6560278310   -1.5501406219    0.4046316077
C        3.5633141714   -0.4369296636    0.8215147369
C        3.2080150033    0.9283617224    0.7533555955
C        1.9034128507    1.3892563350    0.2068532339
N        1.3510807343    2.4696147284    0.7951772378
N        1.3825210891    0.7229464059   -0.8388146988
H        0.4094243816   -4.5819011957   -0.5813286040
H        0.3014291450   -3.6424986141    1.7228392874
H        1.9707989435   -3.5843567762   -2.2468508609
H        6.6727270559   -0.0978635674    2.2089369860
H        6.0260693026    2.3128946798    2.1081018133
H        1.7448583988   -1.7190523471    2.3485293727
H        3.3842529913   -1.6425876213   -1.6184743758
H        5.0837203311   -1.8311874906    1.4131678264
H        3.7955949206    2.9430719550    1.2040219481
H       -1.4244626059    2.5803680843   -1.1300779262
H       -0.2639394108    3.7570165526    0.7900232370
H       -0.2105055832    0.5979577492   -2.1458297989
30   
torsion grid (-75,)
C        1.0229512070   -3.7043672090   -0.3385307223
C        0.8088569344   -3.0201295339    0.8622096391
C        2.0753369120   -3.3163594123   -1.1759245221
C        5.7626071991    0.2011642402    1.7052193903
C        5.3708195054    1.5435219432    1.7179065938
C        1.6376807251   -1.9520665465    1.2184843031
C        2.9005758552   -2.2477241197   -0.8183972639
C        4.8732572250   -0.7752140804    1.2509968874
C        4.0996813025    1.8934002147    1.2655458846
C       -0.5027421580    2.2030182976   -0.6569653051
C        0.1447664487    2.8431407229    0.4010100353
C        0.1745653964    1.1231985695   -1.2265749305
C        2.6791495837   -1.5442105192    0.3733288971
C        3.5910981076   -0.4393381714    0.7918035373
C        3.2098121897    0.9207035069    0.7791903921
C        1.8895759938    1.3719678244    0.2629890562
N        1.3311450571    2.4402282955    0.8671298654
N        1.3630040917    0.7075527308   -0.7815259369
H        0.3805649192   -4.5361807768   -0.6165671389
H        0.0020807354   -3.3223762947    1.5255703260
H        2.2510313291   -3.8453987937   -2.1094936288
H        6.7503828167   -0.0862182820    2.0566598352
H        6.0510261201    2.3113929860    2.0770125675
H        1.4730786772   -1.4224228977    2.1537294780
H        3.7067125700   -1.9362129106   -1.4772741794
H        5.1622734495   -1.8227609573    1.2652849843
H        3.7789806824    2.9300975299    1.2723667672
H       -1.4707602355    2.5323980061   -1.0214256843
H       -0.3012996818    3.7057377938    0.8950198592
H       -0.2432703205    0.5755710766   -2.0706467720
30   
torsion grid (-60,)
C        1.0069567887   -3.6862296283   -0.3271124752
C        0.6888064535   -2.8521663853    0.7506589825
C        2.1782461577   -3.4549571311   -1.0562695906
C        5.8043311817    0.2261502682    1.6003924381
C        5.3799727895    1.5561268544    1.6828303417
C        1.5323598760   -1.7922561825    1.0889685406
C        3.0218628115   -2.3947865519   -0.7141876658
C        4.9234932506   -0.7569978641    1.1447885605
C        4.0846835313    1.8902562670    1.2891579464
C       -0.5309484676    2.1716812064   -0.5936014671
C        0.0680389916    2.7387075315    0.5318306536
C        0.2002898489    1.1740882825   -1.2423054322
C        2.7010168265   -1.5434165893    0.3523116135
C        3.6159802582   -0.4379871238    0.7479587182
C        3.2050042390    0.9129441232    0.7972083893
C        1.8727524237    1.3546702227    0.3035745617
N        1.2614955728    2.3417190525    0.9874370078
N        1.3948809384    0.7654169253   -0.8081867103
H        0.3511883343   -4.5116520108   -0.5924475962
H       -0.2124691641   -3.0320310416    1.3316857492
H        2.4330353325   -4.0982215037   -1.8949855132
H        6.8111399913   -0.0480635521    1.9051584899
H        6.0537497582    2.3268102095    2.0478433565
H        1.2866255265   -1.1489285784    1.9303042713
H        3.9217629070   -2.2059783668   -1.2938692799
H        5.2368733125   -1.7973236893    1.1202753311
H        3.7409495629    2.9185650387    1.3411423470
H       -1.5040675275    2.4949057901   -0.9499357746
H       -0.4224536400    3.5352198305    1.0904092520
H       -0.1790451990    0.6898100275   -2.1414555566
30   
torsion grid (-45,)
C        1.0101163471   -3.6989826986   -0.3094028295
C        0.6152868899   -2.7407658086    0.6314927092
C        2.2627725914   -3.5870476582   -0.9209712071
C        5.8333842541    0.2529988625    1.5038287892
C        5.3793167050    1.5661359821    1.6596639794
C        1.4623999499   -1.6791810086    0.9500973483
C        3.1108435838   -2.5250148092   -0.5963962848
C        4.9607049180   -0.7328679971    1.0402129623
C        4.0634365636    1.8806453346    1.3213308677
C       -0.5490819206    2.1850526519   -0.5407695256
C        0.0151382360    2.6756056627    0.6369512462
C        0.2168003102    1.2552068414   -1.2482575910
C        2.7218535707   -1.5547392512    0.3396489585
C        3.6321363612   -0.4351114055    0.6952779098
C        3.1921612351    0.9035681402    0.8163876235
C        1.8544749445    1.3502436077    0.3405473426
N        1.2087292334    2.2687600251    1.0848067788
N        1.4111250224    0.8375908812   -0.8228047016
H        0.3496430786   -4.5250890267   -0.5603412982
H       -0.3518572725   -2.8242595953    1.1211908553
H        2.5770379192   -4.3222595346   -1.6576615729
H        6.8555760865   -0.0087636350    1.7651864768
H        6.0446015225    2.3382891216    2.0368117368
H        1.1541960719   -0.9485919132    1.6931946213
H        4.0714774431   -2.4292292995   -1.0958624549
H        5.2981584048   -1.7639803126    0.9800742054
H        3.6971214077    2.8974219696    1.4231967029
H       -1.5218790451    2.5148905802   -0.8918811663
H       -0.5032736530    3.4163567069    1.2448835465
H       -0.1350407113    0.8341824667   -2.1894308631
30   
torsion grid (-30,)
C        1.0204769542   -3.7279315496   -0.2835249421
C        0.5614666359   -2.6662403850    0.5038288076
C        2.3358401477   -3.7082333353   -0.7570758013
C        5.8563415702    0.2775878701    1.4168318600
C        5.3878907622    1.5774711378    1.6265938963
C        1.4050509412   -1.5979276207    0.8073903674
C        3.1792367591   -2.6391374099   -0.4471007618
C        4.9841299685   -0.7092884850    0.9567584617
C        4.0564411319    1.8760035456    1.3386938176
C       -0.5537088663    2.2353054260   -0.4708336665
C       -0.0188384018    2.6278160392    0.7560576643
C        0.2393441272    1.3834266278   -1.2441686757
C        2.7346621199   -1.5698485624    0.3499877000
C        3.6397218043   -0.4295890391    0.6515853403
C        3.1857680336    0.8994784947    0.8339816281
C        1.8451162867    1.3617182757    0.3789356408
N        1.1734153331    2.2006868328    1.1897576007
N        1.4324430428    0.9473488495   -0.8342911226
H        0.3618691995   -4.5584873902   -0.5242570270
H       -0.4564943823   -2.6715132866    0.8856256672
H        2.7029013429   -4.5193258741   -1.3810026786
H        6.8891187196    0.0231508574    1.6411067348
H        6.0512885232    2.3500296695    2.0060115594
H        1.0381393814   -0.8004106576    1.4459063271
H        4.1852327419   -2.6200523269   -0.8571389679
H        5.3396019500   -1.7324282219    0.8772967989
H        3.6762692273    2.8831711426    1.4795116888
H       -1.5254362907    2.5805982552   -0.8098551690
H       -0.5600258557    3.3039118307    1.4170756202
H       -0.0895614226    1.0427198282   -2.2253219634
30   
torsion grid (-15,)
C        1.0435919810   -3.7999038572   -0.2652043402
C        0.5284792315   -2.6571192114    0.3542083592
C        2.4025946781   -3.8394418035   -0.5899081700
C        5.8613091790    0.2982408576    1.3110166218
C        5.3780760331    1.5801371379    1.5826848087
C        1.3564379180   -1.5715385797    0.6394819833
C        3.2285789409   -2.7528704833   -0.2981827169
C        4.9899876057   -0.6897593588    0.8533420473
C        4.0321037217    1.8570016545    1.3479347122
C       -0.5599909406    2.3066119917   -0.4184446252
C       -0.0512613382    2.5993988949    0.8466360279
C        0.2504857047    1.5200337724   -1.2416604340
C        2.7331076460   -1.6026254654    0.3471091189
C        3.6289678121   -0.4362319964    0.5920847076
C        3.1630599176    0.8811324077    0.8397077912
C        1.8227841723    1.3680854576    0.4070307279
N        1.1336867560    2.1396585449    1.2681586494
N        1.4357872311    1.0523652629   -0.8441372849
H        0.3968600424   -4.6432601876   -0.4930276657
H       -0.5249221975   -2.6086740273    0.6187401628
H        2.8195580304   -4.7107009021   -1.0887872868
H        6.9049925172    0.0538775850    1.4918049570
H        6.0379445896    2.3533353813    1.9667334708
H        0.9301548235   -0.7234672010    1.1621835680
H        4.2672564373   -2.7939776517   -0.6104905282
H        5.3708112026   -1.6999151613    0.7474973604
H        3.6364701638    2.8512745470    1.5317685258
H       -1.5253009483    2.6776041481   -0.7485008444
H       -0.6073115332    3.2195121773    1.5489206038
H       -0.0582046142    1.2590321470   -2.2533691123
30   
torsion grid (0,)
C        1.1265895794   -3.8930604251   -0.3097729202
C        0.7475092192   -2.5980825031   -0.6700612187
C        2.3378010879   -4.0723691278    0.3633928330
C        5.9438078003    0.2463727595    1.2382150088
C        5.6062324704    1.5730711299    0.9674582661
C        1.5584920702   -1.5064070782   -0.3580054386
C        3.1460974913   -2.9773057835    0.6687880500
C        4.9938935579   -0.7605923849    1.0760313590
C        4.2973360077    1.8632003623    0.5885249802
C       -0.5620798359    2.3687079158    0.1547237011
C       -0.1817360175    1.5124706606    1.1918687902
C        0.4305864693    2.6959637662   -0.7683565153
C        2.7981029691   -1.6610310347    0.2946625983
C        3.6577420876   -0.5039024532    0.7017909594
C        3.3239569894    0.8599837769    0.4784864951
C        1.9290053847    1.3694541427    0.3323616591
N        1.0523756136    1.0125439211    1.2915443186
N        1.6754349314    2.2075664699   -0.6886643112
H        0.4924854654   -4.7433157658   -0.5468491315
H       -0.1875709265   -2.4300756391   -1.1986137570
H        2.6516098099   -5.0675603915    0.6682726367
H        6.9554145168   -0.0148373987    1.5382502163
H        6.3424498629    2.3671650520    1.0567975137
H        1.2375170611   -0.5353943340   -0.7060596838
H        4.0527949634   -3.1692895293    1.2298007366
H        5.3291313004   -1.7816523496    1.2076051499
H        3.9986775922    2.8895139930    0.3965908447
H       -1.5697579355    2.7651804470    0.0781734814
H       -0.8870183770    1.2194059499    1.9688004846
H        0.2278188275    3.3693094502   -1.6004069905
30   
torsion grid (15,)
C        1.0805043193   -3.7946740676   -0.2867380532
C        0.8517226116   -2.5393091028   -0.8583101799
C        2.1645066429   -3.9555167400    0.5810198767
C        5.9804859036    0.2673579380    1.1141770189
C        5.6259884284    1.5991695414    0.8879463474
C        1.6891083520   -1.4634033599   -0.5637942325
C        3.0024367849   -2.8770652367    0.8689146055
C        5.0268628222   -0.7400151386    0.9705738922
C        4.3043149767    1.8993134313    0.5615729265
C       -0.6112326993    2.2638131337    0.2114942768
C       -0.2176687270    1.3073408987    1.1514874889
C        0.3883883175    2.7461730736   -0.6330028910
C        2.8027726616   -1.6109359342    0.2843670747
C        3.6810461047   -0.4655334329    0.6570664944
C        3.3297666090    0.8959550900    0.4651829324
C        1.9205356812    1.3672120295    0.3522318771
N        1.0367052953    0.8582193784    1.2324712823
N        1.6523884013    2.3086256591   -0.5716539957
H        0.4243070620   -4.6315093420   -0.5115365171
H        0.0164760330   -2.3946466216   -1.5390587885
H        2.3494321860   -4.9182251115    1.0509495604
H        7.0057432807    0.0058560549    1.3633567354
H        6.3644102832    2.3923004191    0.9681614156
H        1.5067894934   -0.5187113822   -1.0623670509
H        3.8035554816   -3.0216593376    1.5868433795
H        5.3529758086   -1.7713337538    1.0536853061
H        3.9989906323    2.9287327925    0.4006958522
H       -1.6349888006    2.6193481719    0.1491637578
H       -0.9285088284    0.8908430688    1.8644031980
H        0.1748519141    3.5052606162   -1.3847585615
30   
torsion grid (30,)
C        1.0452711079   -3.7388056756   -0.2675049857
C        0.9412801076   -2.5395337861   -0.9808917207
C        2.0204301937   -3.8600567061    0.7270601608
C        6.0060139785    0.2686594123    1.0136040271
C        5.6344333929    1.6052354203    0.8442612923
C        1.7967098172   -1.4748515532   -0.6985928293
C        2.8786583564   -2.7935609299    1.0036521352
C        5.0517970544   -0.7398667203    0.8762871077
C        4.3012784837    1.9124411379    0.5739571284
C       -0.6456842312    2.1820708283    0.2583184323
C       -0.2409265364    1.1674015569    1.1296716398
C        0.3562843267    2.7563315245   -0.5238398713
C        2.7912799803   -1.5858977346    0.2894563836
C        3.7002711339   -0.4540327663    0.6115327692
C        3.3287352638    0.9064013286    0.4793740840
C        1.9099021773    1.3486776082    0.3848718185
N        1.0244215205    0.7491597918    1.2036364743
N        1.6309151045    2.3511912928   -0.4695205345
H        0.3754605394   -4.5669792451   -0.4843468998
H        0.1928772616   -2.4338885990   -1.7624136464
H        2.1048327946   -4.7808323292    1.2988615906
H        7.0411553276    0.0081120697    1.2192537956
H        6.3721712174    2.3989677557    0.9256989027
H        1.7194047792   -0.5650869330   -1.2856873429
H        3.6036371257   -2.8900208230    1.8071400218
H        5.3695360231   -1.7770867197    0.9269893278
H        3.9882774661    2.9452785552    0.4557993028
H       -1.6782602615    2.5120719919    0.2009611896
H       -0.9522688587    0.6765605943    1.7929906063
H        0.1351305338    3.5653400841   -1.2192163033
30   
torsion grid (45,)
C        1.0180458400   -3.7035136197   -0.2457780913
C        1.0428234358   -2.5810812035   -1.0817538814
C        1.8783630833   -3.7602473911    0.8552759201
C        6.0354275847    0.2502108289    0.9214897531
C        5.6558444955    1.5918014737    0.8171585395
C        1.9137558363   -1.5248599321   -0.8135499319
C        2.7529143203   -2.7029095716    1.1191428019
C        5.0769191181   -0.7549202773    0.7821075450
C        4.3151537060    1.9106456343    0.6028267404
C       -0.6522860133    2.1283334276    0.3070099590
C       -0.2450970667    1.0582523065    1.1076580689
C        0.3535366693    2.7770957821   -0.4095499289
C        2.7801541671   -1.5698394605    0.2918063537
C        3.7223508573   -0.4535558242    0.5653082720
C        3.3402793282    0.9066350079    0.5022883515
C        1.9162992260    1.3322207950    0.4228184230
N        1.0265480245    0.6580077736    1.1757159046
N        1.6339011404    2.3911718958   -0.3599361787
H        0.3377627698   -4.5257680986   -0.4525624422
H        0.3861156336   -2.5315698067   -1.9468631047
H        1.8630958604   -4.6245848306    1.5145830831
H        7.0768961257   -0.0143057450    1.0860861229
H        6.3962848386    2.3822935987    0.9061174144
H        1.9374343786   -0.6644472993   -1.4769334528
H        3.3991897695   -2.7416614622    1.9922457286
H        5.3844576298   -1.7969090948    0.8007148022
H        4.0002086871    2.9471479425    0.5321751056
H       -1.6896062971    2.4437842711    0.2534386617
H       -0.9591358644    0.5064557173    1.7180301144
H        0.1303193499    3.6321440766   -1.0467849358
30   
torsion grid (60,)
C        1.0028900724   -3.6885281519   -0.2266979772
C        1.1636651160   -2.6705956828   -1.1735451879
C        1.7334543706   -3.6429248717    0.9654353222
C        6.0565199744    0.2359561971    0.8191755778
C        5.6758273965    1.5812985972    0.7912537804
C        2.0415240916   -1.6136846553   -0.9252007882
C        2.6131723088   -2.5853080911    1.2109199371
C        5.0904778765   -0.7615837402    0.6720489035
C        4.3300989405    1.9122051671    0.6368406905
C       -0.6502569626    2.1194754985    0.3569171856
C       -0.2498897189    0.9866370188    1.0690194064
C        0.3651826320    2.8369122013   -0.2765104441
C        2.7657965416   -1.5522933359    0.2756183678
C        3.7326526570   -0.4456503189    0.5122342478
C        3.3491544449    0.9141729786    0.5234478357
C        1.9240305051    1.3367857157    0.4607613604
N        1.0243325553    0.5929263111    1.1306202323
N        1.6474621848    2.4586613687   -0.2324915893
H        0.3193229760   -4.5117311598   -0.4186372246
H        0.6102464505   -2.7042606193   -2.1088590395
H        1.6150880227   -4.4295001222    1.7066788716
H        7.1022990449   -0.0360022329    0.9380799931
H        6.4210686310    2.3658923014    0.8921953917
H        2.1691695355   -0.8270112529   -1.6647822026
H        3.1656827262   -2.5425555997    2.1460199799
H        5.3886828135   -1.8064174832    0.6502200314
H        4.0167029873    2.9512721327    0.6191910906
H       -1.6892256494    2.4301545976    0.3075144342
H       -0.9709429563    0.3770573739    1.6125052569
H        0.1473713764    3.7431851779   -0.8406487529
30   
torsion grid (75,)
C        1.0173435478   -3.7122854834   -0.2158051554
C        1.3274417903   -2.8257443660   -1.2519821889
C        1.5892260264   -3.5248422315    1.0479708325
C        6.0613771121    0.2381925529    0.7033552654
C        5.6756854923    1.5813184255    0.7566441779
C        2.1984109263   -1.7563620129   -1.0226814589
C        2.4573617518   -2.4542589477    1.2738808860
C        5.0916856758   -0.7553329879    0.5513170646
C        4.3249223226    1.9137533492    0.6687410432
C       -0.6620276101    2.1233515893    0.4320635617
C       -0.2698397050    0.9301683123    1.0416878585
C        0.3618625372    2.9001986577   -0.1124365363
C        2.7571931467   -1.5497022938    0.2462633045
C        3.7283607546   -0.4372466672    0.4627107276
C        3.3406361100    0.9185090407    0.5454569456
C        1.9147174201    1.3412831240    0.5097972915
N        1.0055299312    0.5371957644    1.0901273222
N        1.6438984250    2.5227119940   -0.0809177891
H        0.3416382467   -4.5454251693   -0.3923415834
H        0.8982030401   -2.9706205978   -2.2404523253
H        1.3561699902   -4.2116527450    1.8580976440
H        7.1116097433   -0.0347635507    0.7688837451
H        6.4222557872    2.3635308798    0.8663262304
H        2.4419811632   -1.0690795686   -1.8292669636
H        2.8874474713   -2.2992193543    2.2597621340
H        5.3880374396   -1.7985965404    0.4811440018
H        4.0095649794    2.9514940220    0.7044085715
H       -1.7012420626    2.4344961421    0.3925293726
H       -0.9973087346    0.2695442548    1.5121614835
H        0.1501524249    3.8550134673   -0.5926764600
30   
torsion grid (90,)
C        1.0463440042   -3.7421859114   -0.2450207805
C        1.5367364573   -3.0005620794   -1.3231185924
C        1.4151714024   -3.3910401918    1.0596830323
C        6.0528504004    0.2527415131    0.5902662272
C        5.6648083606    1.5901788100    0.7163315903
C        2.3907555974   -1.9147661785   -1.0970299574
C        2.2597899634   -2.3024201461    1.2827553678
C        5.0804951654   -0.7379628147    0.4376340355
C        4.3107612547    1.9185832078    0.6918260974
C       -0.6748272903    2.1480477446    0.5377555439
C       -0.2780506144    0.9446152047    1.1229176982
C        0.3443839144    2.9290784087   -0.0101304574
C        2.7477146092   -1.5473743850    0.2069906506
C        3.7126995698   -0.4256979250    0.4236551686
C        3.3243086806    0.9249209752    0.5667629748
C        1.8995861640    1.3537849621    0.5649889135
N        0.9964903885    0.5458419803    1.1480495675
N        1.6245878384    2.5451848484   -0.0042481711
H        0.3864239323   -4.5886891317   -0.4180235325
H        1.2624313010   -3.2692226294   -2.3403535266
H        1.0402069720   -3.9647997889    1.9037991766
H        7.1056486573   -0.0179264072    0.6030373688
H        6.4120044763    2.3713775724    0.8290268519
H        2.7768751364   -1.3413308611   -1.9362957163
H        2.5284052529   -2.0170253511    2.2957300021
H        5.3766805822   -1.7767815697    0.3185544678
H        3.9944958064    2.9535488647    0.7718774382
H       -1.7132383988    2.4637700190    0.5186180035
H       -1.0011213029    0.2793225924    1.5936827357
H        0.1298205369    3.8921883463   -0.4722160732
30   
torsion grid (105,)
C        0.9076384285   -3.6633704746   -0.2088393047
C        2.2010659777   -3.4967685285   -0.7176731762
C        0.4346919690   -2.7883370513    0.7740039739
C        5.2480781584    0.2212992425    2.6824966877
C        5.0281252168    1.5588549058    2.3392056142
C        3.0124521039   -2.4606945681   -0.2502341021
C        1.2504578834   -1.7537276364    1.2424047641
C        4.4347965299   -0.7751397998    2.1379580021
C        4.0053714141    1.8813254914    1.4486411784
C        0.2692712734    2.0661074529   -1.8622607023
C        0.6150521998    2.8499518316   -0.7604359549
C        0.9792402115    0.8736623464   -2.0148069979
C        2.5456713792   -1.5806684212    0.7354553826
C        3.4035473798   -0.4673203532    1.2384236051
C        3.2020875148    0.8822944014    0.8733317535
C        2.1604837425    1.2973582458   -0.1050095394
N        1.5511666647    2.4789260195    0.1190584641
N        1.9225723890    0.4871817127   -1.1522026349
H        0.2753125351   -4.4684924868   -0.5747349025
H        2.5738333014   -4.1694852377   -1.4862974922
H       -0.5673387355   -2.9116827028    1.1777245131
H        6.0405746850   -0.0445325801    3.3775268262
H        5.6486829234    2.3443599643    2.7624831038
H        4.0064193437   -2.3154918075   -0.6646172764
H        0.8813439198   -1.0703478529    2.0033278477
H        4.5838887800   -1.8136268507    2.4217115646
H        3.8182133834    2.9152785572    1.1771528218
H       -0.4995347779    2.3716177819   -2.5650901085
H        0.1257484124    3.8051028222   -0.5723745076
H        0.7928282572    0.2081645826   -2.8570172734
30   
torsion grid (120,)
C        0.9070049399   -3.6675934887   -0.2024186812
C        2.2606333237   -3.6340635929   -0.5543362640
C        0.3805239609   -2.6574983774    0.6103995785
C        5.3106279631    0.2057638432    2.5967639787
C        5.0421521647    1.5502538923    2.3213192816
C        3.0797335202   -2.5971377524   -0.1001157456
C        1.2004046673   -1.6211714968    1.0618430014
C        4.5022799384   -0.7904062237    2.0451751022
C        3.9795539322    1.8808548094    1.4811154820
C        0.2242661010    2.0826034412   -1.8039125170
C        0.5144345666    2.8147722470   -0.6521530099
C        0.9955106486    0.9375208433   -2.0149725986
C        2.5578408834   -1.5779975845    0.7084908562
C        3.4273376208   -0.4740841376    1.2007346464
C        3.1836069162    0.8836561649    0.8951012678
C        2.1269486343    1.3046931287   -0.0643327509
N        1.4569343219    2.4388500323    0.2194633098
N        1.9444014041    0.5462323807   -1.1610921506
H        0.2693785694   -4.4740793599   -0.5557350646
H        2.6771077111   -4.4121798029   -1.1893565055
H       -0.6684117521   -2.6794107326    0.8958101536
H        6.1353341624   -0.0661022666    3.2507399617
H        5.6574559830    2.3341327362    2.7550556359
H        4.1256622631   -2.5605724909   -0.3935316607
H        0.7895175711   -0.8375668407    1.6937548507
H        4.6833425567   -1.8337553706    2.2898068581
H        3.7606491107    2.9192458252    1.2529763277
H       -0.5489572677    2.3913766874   -2.5004615211
H       -0.0253253788    3.7311870372   -0.4157517112
H        0.8539182525    0.3159001414   -2.8983818918
30   
torsion grid (135,)
C        0.9164306179   -3.7167185173   -0.1535345287
C        2.2964397716   -3.7736315369   -0.3727702342
C        0.3652969766   -2.5968217490    0.4801389567
C        5.3496158508    0.1885722356    2.5092618704
C        5.0344795503    1.5360583273    2.3092996933
C        3.1166228605   -2.7178559756    0.0338049674
C        1.1855360948   -1.5420198419    0.8814050345
C        4.5539958081   -0.8034872991    1.9334465574
C        3.9411129703    1.8737045511    1.5121402423
C        0.1984039407    2.1412038111   -1.7696278717
C        0.4379744182    2.8057854050   -0.5666390944
C        1.0176118671    1.0423069694   -2.0397187295
C        2.5712234840   -1.5829631030    0.6524128782
C        3.4484475846   -0.4819779693    1.1295610682
C        3.1602099702    0.8827773391    0.8979169192
C        2.0977937006    1.3228670480   -0.0466574806
N        1.3790759285    2.4088522303    0.2976776860
N        1.9651733347    0.6310355530   -1.1941131313
H        0.2774924224   -4.5381541104   -0.4676343405
H        2.7346837262   -4.6382872554   -0.8650471350
H       -0.7043560613   -2.5495927464    0.6692289764
H        6.1975858869   -0.0903529764    3.1296352328
H        5.6370428610    2.3163657860    2.7665996050
H        4.1856076798   -2.7581258798   -0.1591744995
H        0.7526412539   -0.6832735248    1.3877998223
H        4.7650705320   -1.8495010015    2.1383887736
H        3.6886710033    2.9147085169    1.3362271797
H       -0.5733363453    2.4660233932   -2.4604922530
H       -0.1420241042    3.6828981985   -0.2815068930
H        0.9157173399    0.4759714163   -2.9648068929
30   
torsion grid (150,)
C        0.9193640324   -3.7671809302   -0.0748207363
C        2.3088750233   -3.8862857873   -0.1729681596
C        0.3661455864   -2.5625172965    0.3738856286
C        5.3779152109    0.1862164233    2.4302962584
C        5.0177021085    1.5310961691    2.3076829617
C        3.1329520627   -2.8107583743    0.1666675535
C        1.1917831006   -1.4890054666    0.7069398695
C        4.6009481462   -0.8003389170    1.8216065996
C        3.8988373257    1.8711370309    1.5478586986
C        0.1783161886    2.2244892978   -1.7339810554
C        0.3643583009    2.8043655273   -0.4790044696
C        1.0487801985    1.1830115808   -2.0652843442
C        2.5901646203   -1.5847293060    0.5861122760
C        3.4725683021   -0.4798815861    1.0468744461
C        3.1388754289    0.8880205169    0.8977318554
C        2.0735660363    1.3544018557   -0.0314656549
N        1.3029606343    2.3811025690    0.3760135084
N        1.9946100236    0.7466134916   -1.2306074196
H        0.2762525814   -4.6040648730   -0.3347496983
H        2.7534865250   -4.8173401274   -0.5155679108
H       -0.7114984931   -2.4638929681    0.4790735696
H        6.2434309852   -0.0983248036    3.0232874148
H        5.6029289176    2.3063346287    2.7949646942
H        4.2099342843   -2.9117000280    0.0620142138
H        0.7464361907   -0.5762496405    1.0910196103
H        4.8443276783   -1.8451064282    1.9900243591
H        3.6103471139    2.9107676548    1.4276836388
H       -0.5914285173    2.5695061399   -2.4172356462
H       -0.2579913743    3.6329867437   -0.1427791819
H        0.9898285818    0.6849193294   -3.0324232625
30   
torsion grid (165,)
C        0.9231664723   -3.8228304387    0.0001924141
C        2.3104001967   -3.9894730891    0.0314767993
C        0.3869057905   -2.5572791142    0.2586019866
C        5.4287557103    0.1705547570    2.3411209288
C        5.0197965813    1.5055796991    2.3040910443
C        3.1448330541   -2.9043912758    0.3059255849
C        1.2248018852   -1.4751594549    0.5264061268
C        4.6696878638   -0.8089549063    1.7000052485
C        3.8730104033    1.8411724454    1.5857358910
C        0.1902214905    2.3109430849   -1.6950555894
C        0.3232776972    2.7919357420   -0.3925856347
C        1.1055885468    1.3294774450   -2.0844749981
C        2.6269418226   -1.6131949706    0.5195652572
C        3.5128911346   -0.4978056755    0.9611187602
C        3.1345189511    0.8678731900    0.8983406103
C        2.0702435337    1.3680555009   -0.0150841276
N        1.2543055838    2.3319058897    0.4520492567
N        2.0445948805    0.8575946106   -1.2615087758
H        0.2704887885   -4.6668033558   -0.2073998951
H        2.7472716826   -4.9673074144   -0.1550099595
H       -0.6908220419   -2.4145781923    0.2731120416
H        6.3164048983   -0.1169006964    2.8989302622
H        5.5867827155    2.2744964490    2.8218560407
H        4.2194175580   -3.0608077618    0.2962630313
H        0.7734422205   -0.5237595317    0.7835743554
H        4.9561739651   -1.8473404291    1.8263363167
H        3.5452310008    2.8743013494    1.5240940115
H       -0.5734236649    2.6847746474   -2.3699478679
H       -0.3365851759    3.5690006145   -0.0082716748
H        1.0887878318    0.9105544912   -3.0900388707
30   
torsion grid (180,)
C        1.0324123981   -3.8929658558   -0.1849013174
C        1.8330253759   -3.9692456448    0.9573360745
C        0.9603180833   -2.6778556184   -0.8705443972
C        5.4380697584    0.2228084612    2.2032081770
C        5.3979494473    1.4576599562    1.5540249149
C        2.5309152780   -2.8481321023    1.4078770915
C        1.6563087313   -1.5597213118   -0.4110567399
C        4.4257600247   -0.7121548580    1.9887203183
C        4.3038222756    1.7505437623    0.7423322204
C       -0.1603300637    2.4613165841   -1.2111115575
C       -0.2146314880    1.7606168728   -0.0031003858
C        1.1022054428    2.5932587882   -1.7887985650
C        2.4284261831   -1.5947068788    0.7689792563
C        3.3079826270   -0.4508144799    1.1710444181
C        3.2557795756    0.8356677401    0.5689415022
C        2.0372734651    1.3879372126   -0.0880543470
N        0.8693052600    1.2269725913    0.5648986094
N        2.2031673986    2.0656891859   -1.2389375421
H        0.4920720933   -4.7653432117   -0.5429612877
H        1.9240634569   -4.9068468490    1.4999016435
H        0.3766595068   -2.6008051939   -1.7845658882
H        6.2746521708   -0.0329971890    2.8484366120
H        6.1956810077    2.1836301865    1.6851332786
H        3.1207001021   -2.9563242986    2.3111329060
H        1.6212639494   -0.6668358889   -1.0195038820
H        4.5470634543   -1.6893887206    2.4392010937
H        4.2281372713    2.7151036773    0.2496889384
H       -1.0479838979    2.8872676410   -1.6682933569
H       -1.1559855005    1.6253615378    0.5284164181
H        1.2412242650    3.1365740531   -2.7228092224
