21   
torsion grid (-165,)
C        4.6254238524   -3.9823696507    6.1936386652
C        4.2215415244   -4.3002546930    4.8919417862
C        4.3016418552   -2.7396030420    6.7486338005
C        3.5033632704   -3.3719730071    4.1395428428
C        3.5925889463   -1.7880653464    6.0105219562
C        3.2330375383   -2.1244184022    4.7034781975
C        2.1952810936   -0.0564521274    3.8359514797
C        1.2415887508    0.3830087815    2.7891019443
C        2.8112685912    0.9300855331    4.7576910584
O        2.4495090045   -1.3089289244    3.8347385822
H        5.1777970276   -4.7082054582    6.7824909309
H        4.4530883517   -5.2712243721    4.4658453432
H        4.5900816247   -2.5057437613    7.7686849702
H        3.1631604513   -3.5948321403    3.1332367116
H        3.3168600797   -0.8550567661    6.4804616402
H        1.7737312265    1.0323810929    2.0807079243
H        0.7983159383   -0.4598641596    2.2601164645
H        0.4638943031    1.0068590815    3.2457913796
H        2.2649436464    0.9312127304    5.7102645032
H        3.8573878365    0.6918701497    4.9656842174
H        2.7251647311    1.9312212662    4.3325575097
21   
torsion grid (-150,)
C        4.6180705010   -3.8896292927    6.1904551749
C        4.3393928273   -4.1723869058    4.8482694204
C        4.1192729260   -2.7264382458    6.7870939698
C        3.5706898428   -3.2850528646    4.0938446869
C        3.3593151150   -1.8161418035    6.0472216943
C        3.1368262084   -2.1094863598    4.7023581749
C        2.1552393557   -0.0411798029    3.8469048535
C        1.1199362485    0.4597583664    2.9115804065
C        2.9766348639    0.9006348989    4.6465909113
O        2.2974427163   -1.3116476141    3.8616702045
H        5.2063142105   -4.5868632570    6.7790944539
H        4.7054163365   -5.0863550521    4.3913512585
H        4.3053620222   -2.5280820703    7.8379657317
H        3.3202407048   -3.4872853541    3.0571862631
H        2.9307291023   -0.9486982481    6.5338992889
H        1.6196361248    1.0112747252    2.1036195254
H        0.5231571584   -0.3498147305    2.4928202726
H        0.4821815689    1.1876983139    3.4263050162
H        2.4602146741    1.1211177409    5.5902433261
H        3.9625751725    0.4957171559    4.8821273888
H        3.0610129119    1.8472184427    4.1076168377
21   
torsion grid (-135,)
C        4.6349553221   -3.8321640245    6.2019335333
C        4.4464425091   -4.0661096280    4.8348755703
C        4.0017284882   -2.7543571827    6.8306560882
C        3.6294155831   -3.2184809662    4.0826985328
C        3.1904655314   -1.8846173888    6.0959567369
C        3.0555802091   -2.1316748455    4.7325928662
C        2.1409983838   -0.0674631485    3.8594025589
C        1.0770284798    0.4972526213    2.9972412109
C        3.1153243015    0.8122165846    4.5495433338
O        2.1669220607   -1.3444839503    3.9223198836
H        5.2613562763   -4.5019950329    6.7829348271
H        4.9223498631   -4.9144562041    4.3532474032
H        4.1235219162   -2.5934597469    7.8972545218
H        3.4488839822   -3.3887621796    3.0258828179
H        2.6603997190   -1.0766518138    6.5890651759
H        1.5539734510    0.9405367218    2.1120467537
H        0.3588835200   -0.2610226020    2.6867826346
H        0.5780722576    1.3221781436    3.5178579159
H        2.6908238749    1.1323177652    5.5103662751
H        4.0620052531    0.3075519453    4.7497330767
H        3.2648576542    1.7180426734    3.9569285329
21   
torsion grid (-120,)
C        4.6473287663   -3.7775661019    6.2172701298
C        4.5314105252   -3.9468752849    4.8328674956
C        3.9010742934   -2.7949987242    6.8772374810
C        3.6713315096   -3.1302745643    4.0917675380
C        3.0419711386   -1.9589416738    6.1568102298
C        2.9757506749   -2.1460006744    4.7809515529
C        2.1306962418   -0.0931468382    3.8654678021
C        1.0520549324    0.5303674127    3.0663566564
C        3.2342873724    0.7142215227    4.4383149015
O        2.0468763214   -1.3617458358    4.0020632350
H        5.3098994531   -4.4228813839    6.7857326164
H        5.1008062569   -4.7196413801    4.3260125809
H        3.9743487935   -2.6818784441    7.9543837840
H        3.5487066745   -3.2537323383    3.0201861202
H        2.4299267983   -1.2172396518    6.6611975120
H        1.4926695672    0.9000748284    2.1300567328
H        0.2500666506   -0.1729989129    2.8446619149
H        0.6693408949    1.4140061836    3.5893703331
H        2.9275542942    1.0719264824    5.4306406198
H        4.1492594998    0.1327301797    4.5640620815
H        3.4025707059    1.5987362683    3.8199988088
21   
torsion grid (-105,)
C        4.6543505618   -3.7363135957    6.2326617882
C        4.5988603064   -3.8224516389    4.8371070882
C        3.8128475548   -2.8580138910    6.9240108592
C        3.7033841068   -3.0256643216    4.1148953058
C        2.9128405609   -2.0460036032    6.2249321977
C        2.9043984514   -2.1537730332    4.8408374954
C        2.1165251236   -0.1222844190    3.8607559377
C        1.0330418156    0.5405143859    3.1030785909
C        3.3188222282    0.6185762112    4.3107964944
O        1.9427861043   -1.3669031330    4.0957476016
H        5.3475582328   -4.3640161734    6.7840197917
H        5.2450403823   -4.5134407598    4.3047582033
H        3.8455402178   -2.8063152417    8.0078558692
H        3.6285835519   -3.0882215219    3.0335258266
H        2.2322408122   -1.3785667088    6.7454980504
H        1.4303623681    0.8147876105    2.1157167122
H        0.1628442872   -0.1044680861    2.9852186058
H        0.7652533153    1.4838435798    3.5922575038
H        3.1407540676    0.9623436444    5.3395845687
H        4.2067718496   -0.0162306286    4.3327126563
H        3.4726845378    1.5035542060    3.6911278582
21   
torsion grid (-90,)
C        4.5874595742   -3.7366934097    6.2385093698
C        4.5843426201   -3.7046470847    4.8399398942
C        3.6833300279   -2.9575585817    6.9689231348
C        3.6817097706   -2.8831873384    4.1545498676
C        2.7692732686   -2.1292443534    6.3078178515
C        2.8193692989   -2.1126354559    4.9209861590
C        2.0899167620   -0.1010653419    3.8651718160
C        0.9908838892    0.6024110165    3.1708216394
C        3.4016019589    0.5452397215    4.1100807243
O        1.8384521026   -1.3021254371    4.2234247857
H        5.2885065294   -4.3802256524    6.7609308505
H        5.2751800301   -4.3234639613    4.2757681273
H        3.6780343213   -2.9963668992    8.0537863236
H        3.6449015831   -2.8621446154    3.0693358568
H        2.0434144863   -1.5334494405    6.8532283346
H        1.3741046117    1.0544223676    2.2483676684
H        0.1469779220   -0.0556533219    2.9666613502
H        0.6708485163    1.4412775085    3.8044775885
H        3.8059098484    0.2825100427    5.0902338249
H        4.1110792704    0.1584173560    3.3645284322
H        3.3301201338    1.6259673985    3.9860797221
21   
torsion grid (-75,)
C        4.5738435004   -3.7453022045    6.2621165326
C        4.6369530814   -3.5949618395    4.8724637011
C        3.5992231196   -3.0722220379    7.0072509093
C        3.7306971886   -2.7570625106    4.2136107976
C        2.6770505018   -2.2342682363    6.3705506810
C        2.7918870757   -2.0957311667    4.9946314519
C        2.0806676197   -0.1209187697    3.8483922966
C        0.9575869916    0.5799011290    3.1881374942
C        3.4303574422    0.4851436493    3.9376403723
O        1.8018495124   -1.2690901451    4.3367611191
H        5.2796168261   -4.3992210094    6.7649023351
H        5.3820945402   -4.1334431579    4.2951527399
H        3.5465645934   -3.2010481580    8.0838277895
H        3.7451136054   -2.6508177079    3.1328174068
H        1.9001822926   -1.7156666998    6.9239710667
H        1.2910146257    0.9943830723    2.2304492985
H        0.0908362473   -0.0677100758    3.0596158064
H        0.6862919929    1.4424944199    3.8132905869
H        3.9658160367    0.1659187842    4.8337216049
H        4.0146353982    0.1479509772    3.0699527578
H        3.3587083686    1.5727260105    3.8775995180
21   
torsion grid (-60,)
C        4.5465939276   -3.7741389196    6.2890813410
C        4.6876367062   -3.4990665662    4.9244258382
C        3.5117576066   -3.1888285011    7.0276487437
C        3.8042995582   -2.6219654536    4.2872189679
C        2.6085959144   -2.3177901689    6.4109467729
C        2.8005929160   -2.0505191890    5.0617020584
C        2.1035135364   -0.0985714281    3.8373406792
C        0.9472947217    0.6032700700    3.2348809849
C        3.4738759373    0.4603316013    3.7484582032
O        1.8232260360   -1.1856962605    4.4495089862
H        5.2368335791   -4.4568716066    6.7749175342
H        5.4769243999   -3.9716596146    4.3481554813
H        3.3983051609   -3.4134543113    8.0835365221
H        3.8818081883   -2.4300679742    3.2214622705
H        1.7879870445   -1.8635076597    6.9575401574
H        1.1928722063    0.9104314728    2.2122098490
H        0.0446518686   -0.0065360594    3.2557232693
H        0.7811828568    1.5316158893    3.7989147806
H        4.1134711359    0.1254635198    4.5664782297
H        3.9295778996    0.1281568353    2.8058655400
H        3.4192415551    1.5507133640    3.7034609400
21   
torsion grid (-45,)
C        4.5102668132   -3.8005108870    6.3212164695
C        4.7428258951   -3.4082971697    4.9983250324
C        3.4134508979   -3.2941573983    7.0281187853
C        3.8952912592   -2.4895678117    4.3723618975
C        2.5439838231   -2.3863170253    6.4194927704
C        2.8235192843   -1.9979955338    5.1134000167
C        2.1134854777   -0.0595186487    3.8316260864
C        0.9154525476    0.6452032045    3.3178441280
C        3.4771926336    0.4538469988    3.5541979140
O        1.8676329840   -1.0893359611    4.5486183120
H        5.1767162514   -4.5137216732    6.7964051408
H        5.5785954938   -3.8225793931    4.4431577403
H        3.2267337719   -3.6094389105    8.0498101492
H        4.0491716849   -2.2222040902    3.3328402952
H        1.6779374370   -1.9883382106    6.9390548140
H        1.0492518233    0.8724399615    2.2542687931
H        0.0038853871    0.0716199931    3.4824556004
H        0.8411859759    1.6148869155    3.8291483678
H        4.1986402516    0.1550067353    4.3163132825
H        3.8192545234    0.0633953672    2.5865617381
H        3.4352891510    1.5412581298    3.4535846192
21   
torsion grid (-30,)
C        4.4867204994   -3.8548518263    6.3550859840
C        4.8234910894   -3.3555922012    5.0921547994
C        3.3249410816   -3.4173438503    7.0014560387
C        4.0206446431   -2.3974974409    4.4668106438
C        2.4991584104   -2.4728864106    6.3911413732
C        2.8760451334   -1.9773429903    5.1443422977
C        2.1365691474   -0.0445172529    3.8244072371
C        0.9050808006    0.6783119004    3.4256608029
C        3.4672663181    0.4119880967    3.3527980130
O        1.9471619893   -1.0256723444    4.6217597409
H        5.1232756841   -4.5959158323    6.8286742290
H        5.7108316787   -3.7156911360    4.5809663584
H        3.0561101288   -3.8133485408    7.9755890575
H        4.2677718659   -2.0598595860    3.4687361825
H        1.5871656718   -2.1217627362    6.8635652010
H        0.9114055970    0.8448612834    2.3424727318
H        0.0038181999    0.1484225133    3.7321183548
H        0.9244593923    1.6754072337    3.8870170045
H        4.2558065345    0.2064220871    4.0795574496
H        3.7191502546   -0.1050220896    2.4172676368
H        3.4194870358    1.4781977480    3.1213190766
21   
torsion grid (-15,)
C        4.4683062143   -3.9314184785    6.3969895016
C        4.9159697406   -3.3091475073    5.2267686932
C        3.2389543965   -3.5702283442    6.9597662612
C        4.1579592033   -2.3100789328    4.6100669715
C        2.4586965618   -2.5842175601    6.3581144273
C        2.9379065019   -1.9699446584    5.1997975507
C        2.1458943466   -0.0413384757    3.8622602451
C        0.8950136353    0.7092172095    3.5970870840
C        3.4126584234    0.3375608702    3.1878394415
O        2.0283146791   -0.9859810688    4.7149330430
H        5.0734248065   -4.7027921093    6.8634102980
H        5.8614121160   -3.6019490569    4.7808987312
H        2.8841497059   -4.0563548420    7.8629279106
H        4.5144820562   -1.8756356249    3.6879190282
H        1.4990593627   -2.2868389048    6.7688003268
H        0.7041106250    0.7132896326    2.5162393440
H        0.0442041046    0.2888400019    4.1319200023
H        1.0425218615    1.7591112736    3.8814470262
H        4.2576672031    0.3109572709    3.8814992495
H        3.6208136425   -0.3673385134    2.3724135992
H        3.3148193833    1.3313883591    2.7498168196
21   
torsion grid (0,)
C        4.4403312777   -3.9501349425    6.3867558888
C        4.9919331123   -3.1924973848    5.3482202608
C        3.1455484958   -3.6806589429    6.8439938377
C        4.2684455706   -2.1578918393    4.7490855284
C        2.4035867128   -2.6541784226    6.2630266065
C        2.9779362393   -1.9127847644    5.2277063994
C        2.1505219242   -0.0136987792    3.8519924415
C        0.9343791455    0.8238825340    3.7184428590
C        3.3262481864    0.2180533987    2.9761419267
O        2.0808111118   -0.9118030541    4.7581396289
H        5.0202081934   -4.7493640255    6.8381058258
H        5.9964776450   -3.4028550480    4.9945628846
H        2.7129553558   -4.2656960741    7.6492942686
H        4.7281858890   -1.5969491662    3.9503789398
H        1.3972825226   -2.4208091262    6.5957099055
H        0.5589460510    0.7444669637    2.6898890051
H        0.1592770784    0.5377697501    4.4282552852
H        1.2105526227    1.8771821736    3.8576297842
H        4.2082498266    0.4597086749    3.5803418337
H        3.5530523731   -0.6841705854    2.3967134789
H        3.1271927620    1.0413194885    2.2906244136
21   
torsion grid (15,)
C        4.4463619354   -3.9696432641    6.3573473529
C        5.0525237933   -3.0713724571    5.4726357347
C        3.1034120047   -3.8062493673    6.7155061755
C        4.3299620266   -2.0104688925    4.9199731990
C        2.3635460439   -2.7498603430    6.1866875849
C        2.9904779496   -1.8782539467    5.2945358253
C        2.1554246280   -0.0245247136    3.8795492810
C        1.0201987026    0.9275311713    3.8228161206
C        3.2270043721    0.0143114206    2.8532498113
O        2.1000660157   -0.8608842644    4.8442589427
H        5.0234182069   -4.7898847215    6.7732131647
H        6.0989773805   -3.1882603001    5.2086887645
H        2.6316545614   -4.4960578929    7.4079772518
H        4.8370698132   -1.3138211796    4.2690265898
H        1.3220254673   -2.5950857362    6.4498952717
H        0.4847835756    0.7873882248    2.8748846570
H        0.3389633024    0.8028064142    4.6636473667
H        1.4146979420    1.9514778020    3.7980246930
H        4.1190356387    0.4994620378    3.2704173607
H        3.5088206580   -0.9923703750    2.5321534075
H        2.8978076920    0.6051459233    1.9978745096
21   
torsion grid (30,)
C        4.4514891906   -3.9548630637    6.2931111916
C        5.0762706958   -2.9410888243    5.5585805740
C        3.0812523708   -3.8854909538    6.5698569247
C        4.3408523868   -1.8573459733    5.0705211180
C        2.3285149177   -2.8060879665    6.1066071282
C        2.9760475971   -1.8257549942    5.3570052597
C        2.1570855987   -0.0090297981    3.9241572620
C        1.1143292647    1.0437536776    3.8772018823
C        3.1304422662   -0.1590044710    2.8143078958
O        2.1019696629   -0.7721112408    4.9483821251
H        5.0365050100   -4.7918549378    6.6617096793
H        6.1440101173   -2.9832987661    5.3675061311
H        2.5980006472   -4.6650138120    7.1502334119
H        4.8484863845   -1.0568675148    4.5482409532
H        1.2664278398   -2.7202066634    6.3135150751
H        0.4227976269    0.8103456649    3.0559028721
H        0.5634051259    1.1142447885    4.8144573847
H        1.5750676067    2.0049215408    3.6218700889
H        4.0246432389    0.4406839352    3.0304011186
H        3.4406676709   -1.1965776376    2.6748034806
H        2.6942574426    0.2434140554    1.8975510348
21   
torsion grid (45,)
C        4.4591514529   -3.9276884205    6.2312851075
C        5.0898873986   -2.8302697872    5.6347502030
C        3.0725884867   -3.9304695110    6.4223499551
C        4.3412725244   -1.7316078270    5.2026444594
C        2.3048622107   -2.8381358079    6.0124175826
C        2.9631118723   -1.7782910984    5.3974623453
C        2.1444722160   -0.0068852640    3.9496428854
C        1.1923123599    1.1269998329    3.8892468550
C        3.0183837586   -0.3306793532    2.7956706804
O        2.1110209457   -0.6824371447    5.0347607659
H        5.0517631333   -4.7753170980    6.5613862608
H        6.1683472606   -2.8187181444    5.5117040360
H        2.5862686143   -4.7766851438    6.8972530970
H        4.8357363371   -0.8623936634    4.7833893135
H        1.2299585849   -2.8073699966    6.1607173727
H        0.4187946233    0.8877655909    3.1465970006
H        0.7278643699    1.3204572214    4.8556314202
H        1.7059832077    2.0199005582    3.5154529227
H        3.9314425799    0.2765865464    2.8536206711
H        3.3092198001   -1.3821099036    2.7743694379
H        2.5108601218   -0.0416785856    1.8719378555
21   
torsion grid (60,)
C        4.4762899733   -3.9011708627    6.1769155287
C        5.1203033564   -2.7464958766    5.7189269330
C        3.0812868237   -3.9445013726    6.2825835445
C        4.3737288140   -1.6248124518    5.3446922910
C        2.3140969913   -2.8316404222    5.9257502747
C        2.9901159202   -1.7153767716    5.4502186515
C        2.1408177763    0.0061351942    3.9978717655
C        1.2633636251    1.1959002490    3.9159230172
C        2.8978735910   -0.4758044665    2.8177264193
O        2.1684574927   -0.5732838275    5.1374442620
H        5.0650553299   -4.7664097608    6.4654595378
H        6.2036030817   -2.7087844742    5.6601329468
H        2.5866219809   -4.8384076714    6.6493485388
H        4.8637449095   -0.7110025368    5.0230112522
H        1.2319995744   -2.8316831493    6.0128717622
H        0.4107435738    0.9456966741    3.2693139532
H        0.9030552419    1.5049280989    4.8966138332
H        1.7938088385    2.0129175518    3.4143370861
H        3.8569849592    0.0577250819    2.7728592024
H        3.1115414205   -1.5445801581    2.8691721908
H        2.3527355356   -0.2196137621    1.9061936443
21   
torsion grid (75,)
C        4.4919589495   -3.8865062612    6.1335154241
C        5.1509450269   -2.6921646375    5.8215698758
C        3.0942695325   -3.9519448612    6.1279630068
C        4.4174442675   -1.5488304140    5.4867750148
C        2.3383840099   -2.8199170279    5.8034651750
C        3.0335585975   -1.6641183060    5.4772536024
C        2.1272073776   -0.0019777707    4.0162839352
C        1.3011878506    1.2205311697    3.9075115109
C        2.7640969971   -0.6189026954    2.8286136795
O        2.2425377767   -0.4846835264    5.1944123496
H        5.0706494792   -4.7672722471    6.3940364986
H        6.2350525414   -2.6413233084    5.8457300782
H        2.5867455999   -4.8773124371    6.3820201237
H        4.9102740826   -0.6052626475    5.2711742778
H        1.2528867796   -2.8385791800    5.8097499845
H        0.3764699511    0.9540749548    3.3760570268
H        1.0562680532    1.6363467963    4.8844038513
H        1.8103290188    1.9573441813    3.2767376328
H        3.7765987475   -0.2028289802    2.7295316340
H        2.8660444290   -1.7007882975    2.9317219137
H        2.2137378218   -0.3504380969    1.9249384187
21   
torsion grid (90,)
C        4.7596054572   -3.9888862556    6.4903248200
C        3.6431041028   -4.3222428697    5.7161815965
C        5.4284281396   -2.7767082905    6.2870485042
C        3.1754508045   -3.4406140121    4.7347011721
C        4.9822164884   -1.8786500660    5.3108360658
C        3.8572538910   -2.2417388349    4.5836025117
C        2.5295912937   -0.4504809685    3.7342995277
C        2.1935907854    0.3939958335    2.5687334627
C        1.8609964128   -0.2761107495    5.0461350912
O        3.4198436018   -1.3449637332    3.5306358227
H        5.1171456876   -4.6811624360    7.2462627304
H        3.1368119670   -5.2710422850    5.8642700656
H        6.3037041665   -2.5276406986    6.8789310889
H        2.3260662897   -3.6904003584    4.1056895527
H        5.4989716943   -0.9427359196    5.1201495703
H        2.5028500586    1.4238131793    2.7960926485
H        2.6825386933    0.0496516964    1.6580672409
H        1.1047125237    0.4293216540    2.4463719504
H        1.1076707125   -1.0703197232    5.1481008400
H        2.5598803722   -0.4013734404    5.8762931695
H        1.3526273935    0.6869544400    5.0966438057
21   
torsion grid (105,)
C        4.4906658460   -3.7941660712    6.3258879909
C        3.4314212834   -4.1651227805    5.4901901384
C        5.0719325871   -2.5261782603    6.2167870051
C        2.9353552423   -3.2690378306    4.5365608426
C        4.5902890462   -1.6097060484    5.2754414977
C        3.5278615358   -2.0156705505    4.4792695291
C        2.2870850617   -0.1161085543    3.7295337089
C        1.8986818762    0.7242893760    2.5759840469
C        1.8158642817    0.1810609568    5.1029184789
O        3.0477357492   -1.1069328780    3.4578040328
H        4.8721938718   -4.4998135198    7.0573434581
H        2.9909694579   -5.1540480712    5.5703843612
H        5.9051491031   -2.2475073299    6.8544175477
H        2.1269403783   -3.5404374183    3.8644944317
H        5.0456287530   -0.6308640838    5.1563515396
H        2.0074270407    1.7830530150    2.8353227617
H        2.4653145514    0.4747821692    1.6793964374
H        0.8263012739    0.5662604943    2.3925063570
H        1.7010683257   -0.7234211415    5.7031096251
H        2.5772627519    0.8032967708    5.5945542143
H        0.8922724250    0.7615120292    5.0687554855
21   
torsion grid (120,)
C        4.4995784274   -3.8321331183    6.3035951752
C        3.5101686398   -4.2527045451    5.4074500290
C        4.9699768890   -2.5146773957    6.2756523393
C        2.9760664973   -3.3560934109    4.4766189784
C        4.4435947939   -1.5970926538    5.3606912509
C        3.4459926297   -2.0498619924    4.5050761634
C        2.2717014188   -0.0962273383    3.7484401531
C        1.8647655918    0.6978818394    2.5675433477
C        1.9148666752    0.3270795968    5.1236609458
O        2.9245688986   -1.1650886107    3.4906372654
H        4.9160449580   -4.5373844158    7.0161525150
H        3.1577891694   -5.2793098616    5.4222792956
H        5.7547307564   -2.1978246782    6.9555071249
H        2.2219827898   -3.6614267206    3.7578106915
H        4.8255337585   -0.5822299726    5.3038104908
H        2.0964292368    1.7555086318    2.7361692252
H        2.3300178589    0.3344482281    1.6518248509
H        0.7711464265    0.6379268297    2.4781890883
H        1.8447941677   -0.5172662225    5.8113979086
H        2.7003069937    0.9982143853    5.4973517897
H        0.9883478274    0.9052107107    5.1017261080
21   
torsion grid (135,)
C        4.5207798016   -3.8887708477    6.2770473187
C        3.6017727822   -4.3327830565    5.3191916569
C        4.8779539387   -2.5375039793    6.3430360939
C        3.0253625660   -3.4277680799    4.4245276742
C        4.3041249442   -1.6110139236    5.4673528310
C        3.3695726885   -2.0868221717    4.5518011107
C        2.2557120703   -0.0848224765    3.7705883176
C        1.8112249627    0.6393203252    2.5571395383
C        2.0276118302    0.4763392585    5.1242973968
O        2.8026022859   -1.2205091862    3.5548732963
H        4.9740028132   -4.5996720656    6.9610345580
H        3.3410159222   -5.3845393250    5.2563372236
H        5.6147704567   -2.2000366420    7.0652317629
H        2.3263500771   -3.7484743028    3.6583944471
H        4.6142685042   -0.5715759341    5.4843799915
H        2.1295137128    1.6862609249    2.6146527091
H        2.1772519349    0.1689931306    1.6450888586
H        0.7125304026    0.6557772424    2.5512374680
H        1.9676948287   -0.2984152947    5.8906120354
H        2.8610243320    1.1439103948    5.3803485964
H        1.1258076532    1.0932357159    5.1108908643
21   
torsion grid (150,)
C        4.5477428546   -3.9359275425    6.2392409915
C        3.7031505623   -4.3796795273    5.2150499239
C        4.7885460186   -2.5687713550    6.4139379716
C        3.0847999078   -3.4589622810    4.3681189886
C        4.1691195921   -1.6271915757    5.5873636327
C        3.3025412019   -2.1036519694    4.6043441366
C        2.2324548237   -0.0648363953    3.7859439183
C        1.7413562301    0.5777258210    2.5438038534
C        2.1367563870    0.6354851431    5.0902968333
O        2.6828946044   -1.2520331708    3.6359742487
H        5.0359588227   -4.6562841720    6.8883902903
H        3.5356194096   -5.4413104854    5.0637254219
H        5.4725646169   -2.2275762589    7.1846925970
H        2.4414610919   -3.7751701892    3.5529648440
H        4.4062200603   -0.5759074403    5.6949412252
H        2.1357139074    1.5980834047    2.4769470716
H        2.0022122543    0.0015488170    1.6566783672
H        0.6495035140    0.6773566231    2.6143531620
H        2.0512393387   -0.0575345482    5.9291053587
H        3.0357169366    1.2483755912    5.2396315343
H        1.2896005424    1.3250119687    5.0641206792
21   
torsion grid (165,)
C        4.5796555252   -3.9947970910    6.2192483786
C        3.8334789422   -4.4059279531    5.1089426335
C        4.6821576075   -2.6359097231    6.5358613975
C        3.1796798992   -3.4601283770    4.3205244548
C        4.0267128748   -1.6697849794    5.7677584877
C        3.2638802120   -2.1160004134    4.6862058090
C        2.2108732237   -0.0521962652    3.8271864449
C        1.6158201090    0.4849321960    2.5798083686
C        2.2942118693    0.7892702398    5.0467332158
O        2.5894719272   -1.2707992777    3.7564446650
H        5.0953654138   -4.7306093528    6.8286122963
H        3.7689181989   -5.4575547858    4.8484297934
H        5.2852771099   -2.3163212464    7.3799596416
H        2.6062100992   -3.7465444924    3.4446507959
H        4.1610709305   -0.6250735374    6.0083835502
H        2.0829046922    1.4478103056    2.3405111765
H        1.7163583449   -0.2098315654    1.7467737961
H        0.5542415777    0.7002408387    2.7624903342
H        2.0928935626    0.2113029185    5.9521608146
H        3.3034324972    1.2140868640    5.1296039865
H        1.5962264227    1.6237448592    4.9636894250
21   
torsion grid (180,)
C        4.5953189350   -4.0039849066    6.1863843187
C        4.0092508772   -4.3580780758    4.9660099091
C        4.5012095435   -2.6902371574    6.6575682806
C        3.3297634846   -3.3988665756    4.2177454319
C        3.8253880538   -1.7099095458    5.9260944936
C        3.2505146336   -2.0943636110    4.7110908439
C        2.1956344620   -0.0201509460    3.8345260716
C        1.4150143047    0.4252325843    2.6552623218
C        2.5399465445    0.9361540456    4.9162451565
O        2.5235816511   -1.2549740064    3.8198236161
H        5.1250943133   -4.7498841734    6.7709467944
H        4.0796618264   -5.3759508679    4.5960235589
H        4.9564386421   -2.4171377833    7.6044668499
H        2.8647069492   -3.6425267266    3.2679316217
H        3.7746357082   -0.7079324992    6.3228579151
H        1.9470976760    1.2523364518    2.1675903302
H        1.2425530927   -0.3848251309    1.9477744595
H        0.4594476972    0.8427493207    2.9984855642
H        2.1237090149    0.5960491411    5.8713953574
H        3.6278609060    1.0058904654    5.0298509060
H        2.1415807932    1.9236662611    4.6850743327
