19   
torsion grid (-165,)
C        2.0059435279   -0.0321984285    0.3180356991
C        2.9879723969   -0.3302699943    1.1384796802
C        1.0280750426    0.2881797521   -0.4974446529
C        0.7952684956    1.8435396583   -2.4588340203
C       -0.7190086614    2.1066846810   -0.4393019197
C       -0.7617364176    2.3323533376    1.0620252576
C        0.6864987451    1.7028677811   -0.9313811592
F       -2.0629661660    2.6986060299    1.4548712746
H        3.9903398010   -0.5418313528    0.7694601191
H        2.8301010879   -0.3837572549    2.2146284338
H        0.4033401792   -0.5088145985   -0.9081506303
H        0.5973257375    2.8755086423   -2.7679570420
H        0.0695099317    1.1965597949   -2.9656189211
H        1.7947184424    1.5645477930   -2.8060482290
H       -1.4500851675    1.3359261674   -0.7114138720
H       -1.0280309047    3.0328201158   -0.9380440276
H       -0.0933319330    3.1467339757    1.3624929129
H       -0.4968646928    1.4280088659    1.6177257420
H        1.4210372779    2.3782088804   -0.4764562695
19   
torsion grid (-150,)
C        1.9980068921   -0.0940428277    0.2894352626
C        2.9470565448   -0.4072705007    1.1424388442
C        1.0539699597    0.2399840611   -0.5599249223
C        0.8078280066    1.9152838017   -2.4298473096
C       -0.7492660163    1.9969912746   -0.4132744752
C       -0.7301126561    2.4641766046    1.0313070308
C        0.6750785939    1.6650075824   -0.9189344742
F       -2.0422430211    2.6929648104    1.4853141148
H        3.9741326593   -0.5598213563    0.8145290708
H        2.7369309110   -0.5330016781    2.2035212549
H        0.4831058403   -0.5521937015   -1.0502314374
H        0.5972205481    2.9637403147   -2.6659877395
H        0.1017668395    1.2959110648   -2.9958714370
H        1.8177873274    1.6784965157   -2.7784639376
H       -1.4035560619    1.1230653578   -0.5053361402
H       -1.1875373421    2.7920125887   -1.0276989396
H       -0.1837816699    3.4077106240    1.1370151955
H       -0.2834475942    1.7140019428    1.6921415215
H        1.3851669615    2.3306573677   -0.4130631069
19   
torsion grid (-135,)
C        0.4901672435   -0.7038772741   -0.5723686347
C        0.4368623987   -1.9841181659   -0.8648183793
C        0.5447993129    0.5774720009   -0.2894623450
C        0.0520305085    1.2269255625   -2.7082986099
C       -0.7941407948    2.6627622488   -0.7702084342
C       -0.2682553013    3.8977196865   -0.0652689901
C        0.3215914902    1.7080980122   -1.2793658959
F        0.4752891060    3.5317693060    1.0776385287
H       -0.4949118390   -2.5436877101   -0.7961385513
H        1.3249056807   -2.5311755642   -1.1780675068
H        0.7571950612    0.8800614057    0.7366240348
H       -0.0204237472    2.0806896444   -3.3904141137
H       -0.8860854522    0.6638235596   -2.7656873562
H        0.8529509438    0.5716739072   -3.0630237569
H       -1.4871220173    2.1286210744   -0.1120021390
H       -1.3876498668    3.0191403869   -1.6222998947
H       -1.0801909835    4.5471564461    0.2778394264
H        0.4073322638    4.4704525010   -0.7101537928
H        1.2573217408    2.2849290833   -1.2984516261
19   
torsion grid (-120,)
C        0.4503406511   -0.7659924099   -0.6013522658
C        0.3816192382   -2.0286399940   -0.9594283251
C        0.5195090847    0.4981337922   -0.2520774978
C        0.1298082377    1.2804820036   -2.6441122598
C       -0.7939744858    2.6160842482   -0.6674602795
C       -0.3009086248    3.9731577440   -0.2048620524
C        0.3442343427    1.6861226344   -1.1827233766
F        0.5789610296    3.8170518666    0.8871412566
H       -0.5613256195   -2.5732841836   -0.9423410892
H        1.2674451811   -2.5758820903   -1.2784890777
H        0.7128170896    0.7404740285    0.7942540614
H        0.0557572211    2.1694899271   -3.2800759564
H       -0.7925963715    0.7011720051   -2.7600217682
H        0.9568281736    0.6658051340   -3.0116565636
H       -1.3392221673    2.1410761126    0.1542978679
H       -1.5273544366    2.7862533394   -1.4654800721
H       -1.1225802498    4.6114789167    0.1358240748
H        0.2596344272    4.4918438966   -0.9907134480
H        1.2826730266    2.2536091402   -1.1246512652
19   
torsion grid (-105,)
C        0.4103614109   -0.8160349867   -0.6358869793
C        0.3101208437   -2.0545495172   -1.0636539491
C        0.5133162453    0.4247786672   -0.2177741155
C        0.2041152083    1.3388689584   -2.5658431072
C       -0.7679637089    2.5719981054   -0.5544717946
C       -0.3517456798    4.0171667739   -0.3537370755
C        0.3839689494    1.6691015164   -1.0808561867
F        0.6379574194    4.0920081708    0.6474560510
H       -0.6483748457   -2.5711330106   -1.0848897718
H        1.1834212790   -2.6089659726   -1.4042154696
H        0.7033086014    0.5992319976    0.8429277093
H        0.1205601650    2.2579323765   -3.1570138459
H       -0.7034364165    0.7476880300   -2.7264778956
H        1.0506464838    0.7632896370   -2.9519121316
H       -1.1450345485    2.1962785877    0.4024658741
H       -1.6149474310    2.5468774598   -1.2506833037
H       -1.1895699397    4.6390348700   -0.0223619351
H        0.0826728142    4.4506409410   -1.2618341053
H        1.3222888978    2.2242235067   -0.9551660046
19   
torsion grid (-90,)
C        0.3692407056   -0.8536261291   -0.6679097743
C        0.2486117158   -2.0665247625   -1.1589253234
C        0.4942921751    0.3609492384   -0.1835271317
C        0.2787834013    1.4004873260   -2.4855752417
C       -0.7283360266    2.5420421094   -0.4446940714
C       -0.4133711632    4.0264428769   -0.5003241877
C        0.4215294233    1.6524484826   -0.9813051427
F        0.6612557231    4.3171268998    0.3644461339
H       -0.7221291889   -2.5550805702   -1.2291964628
H        1.1158076456   -2.6265443179   -1.5058652085
H        0.6613215650    0.4715460033    0.8897125114
H        0.2166162463    2.3466595527   -3.0347627077
H       -0.6272176133    0.8238007779   -2.6987202578
H        1.1320608310    0.8392152073   -2.8775966279
H       -0.9497023092    2.2921073365    0.5987950635
H       -1.6468126361    2.3502481541   -1.0130348288
H       -1.2629247664    4.6319416120   -0.1688979964
H       -0.1100247328    4.3499393986   -1.5021743899
H        1.3626647525    2.1852569155   -0.7943723929
19   
torsion grid (-75,)
C        0.3284651786   -0.8736852451   -0.6963343813
C        0.1770446164   -2.0582313897   -1.2446661532
C        0.4858063403    0.3132030963   -0.1557211668
C        0.3636374631    1.4592524627   -2.4147756444
C       -0.6696481459    2.5226929813   -0.3365518354
C       -0.5009871298    4.0042644421   -0.6252409347
C        0.4681593610    1.6394277256   -0.8971456310
F        0.6627158936    4.4862981342    0.0072845579
H       -0.8076175526   -2.5098761144   -1.3561452504
H        1.0320416452   -2.6312933108   -1.6003186586
H        0.6334840906    0.3691930093    0.9247029939
H        0.3808082547    2.4246957071   -2.9303226014
H       -0.5646509258    0.9443208121   -2.6840848008
H        1.1972255682    0.8628379766   -2.7968336902
H       -0.7349386183    2.4002961888    0.7508554265
H       -1.6317332794    2.1918681669   -0.7486879772
H       -1.3421698413    4.5840487940   -0.2320773486
H       -0.3904863900    4.2143685731   -1.6937359201
H        1.4145092194    2.1447541012   -0.6641290209
19   
torsion grid (-60,)
C        0.2870647810   -0.8864093827   -0.7230047974
C        0.1303377026   -2.0455141996   -1.3219171762
C        0.4515314543    0.2744070897   -0.1304659856
C        0.4497709034    1.5175739720   -2.3474985051
C       -0.6101817732    2.5243725231   -0.2408056599
C       -0.5907803169    3.9609220222   -0.7323222926
C        0.5052126773    1.6265172372   -0.8209266911
F        0.6404817279    4.5687128082   -0.4124757635
H       -0.8598792323   -2.4634319535   -1.4972217112
H        0.9855584797   -2.6301173450   -1.6577654992
H        0.5470669256    0.2854173496    0.9573356630
H        0.6050286233    2.4913964208   -2.8200813350
H       -0.5157325434    1.1211617008   -2.6813875595
H        1.2281433443    0.8427702760   -2.7148779500
H       -0.5411450819    2.5297829485    0.8534605972
H       -1.5901137584    2.0973018403   -0.4932746986
H       -1.3747443427    4.5527264887   -0.2488191921
H       -0.7084939063    4.0330159515   -1.8172881403
H        1.4625400839    2.0878303634   -0.5445913396
19   
torsion grid (-45,)
C        2.4818468749    0.0751934429   -0.0209528999
C        3.6393551627    0.1601568008    0.5951961234
C        1.3262881423    0.0098645215   -0.6409632237
C        0.3309179671    1.0769217941   -2.6877385939
C       -0.7540586222    1.3656479205   -0.3690083568
C       -1.7530878682    2.3516756705   -0.9463920228
C        0.5575159210    1.2054183648   -1.1718879583
F       -1.1677236477    3.6278602945   -1.0772267633
H        4.5785415186    0.1145708461    0.0459763836
H        3.6980140237    0.2749247272    1.6764540333
H        0.8682039776   -0.9709994735   -0.7917565696
H       -0.1056045508    1.9900425322   -3.1021281724
H       -0.3363317268    0.2384728516   -2.9245651651
H        1.2822030205    0.8988291331   -3.1979144595
H       -0.5093044097    1.6485109386    0.6602543515
H       -1.2691651148    0.3956312743   -0.3123504160
H       -2.6201782880    2.4639957907   -0.2873494906
H       -2.0982533059    2.0564044454   -1.9412323033
H        1.1647710853    2.0988520578   -0.9990724800
19   
torsion grid (-30,)
C        2.4748717745    0.0243768608   -0.0304357043
C        3.6405599257    0.0504658044    0.5755613003
C        1.3115360462    0.0176082535   -0.6392495073
C        0.3612902749    1.1760976360   -2.6626104050
C       -0.7081532512    1.4672967751   -0.3185010003
C       -1.8185018535    2.2421338921   -1.0020350221
C        0.5892049267    1.2526227277   -1.1432142460
F       -1.3888963710    3.5452724577   -1.3307909261
H        4.5715619909   -0.0257254409    0.0158953573
H        3.7143775166    0.1445260481    1.6579083474
H        0.8105294683   -0.9402661026   -0.8010752039
H       -0.0654697186    2.1075234709   -3.0439905744
H       -0.3111460699    0.3518483679   -2.9321506947
H        1.3133262989    1.0036970119   -3.1734593657
H       -0.4556687321    1.9430928155    0.6345107016
H       -1.1415321237    0.4887686880   -0.0658021331
H       -2.6830475132    2.3510995294   -0.3390368872
H       -2.1410015789    1.7685111346   -1.9332592160
H        1.2401091489    2.1130240029   -0.9609228036
19   
torsion grid (-15,)
C        2.4552579515   -0.0244018006   -0.0418569378
C        3.6267365528   -0.0628627746    0.5523752248
C        1.2870534689    0.0345977020   -0.6382704608
C        0.4063222595    1.2699562404   -2.6436735297
C       -0.6674948164    1.5846773037   -0.2869430926
C       -1.8754813573    2.1174353866   -1.0337640407
C        0.6221669141    1.3104071562   -1.1202750228
F       -1.6258523155    3.4126116269   -1.5369462766
H        4.5477600572   -0.1764026003   -0.0174121983
H        3.7153296356    0.0122333487    1.6351053362
H        0.7381830921   -0.8950526210   -0.8093558305
H       -0.0244423759    2.2067997138   -3.0060680749
H       -0.2563580296    0.4480380663   -2.9413402092
H        1.3650749372    1.1130668758   -3.1469469254
H       -0.4302061621    2.2589097842    0.5417736263
H       -1.0021182393    0.6466887146    0.1770836437
H       -2.7370009888    2.2016911773   -0.3632949987
H       -2.1480886948    1.4911810128   -1.8875409943
H        1.3171082704    2.1323996204   -0.9253072220
19   
torsion grid (0,)
C        2.4223811589   -0.0688860379   -0.0579779742
C        3.5974132695   -0.1825794939    0.5195957751
C        1.2519323781    0.0662516787   -0.6369687055
C        0.4658093586    1.3724857675   -2.6240382177
C       -0.6356439720    1.7071827734   -0.2734191273
C       -1.9182430933    1.9681053220   -1.0422660986
C        0.6560851405    1.3857413076   -1.0956845147
F       -1.8532660258    3.2003896378   -1.7267903559
H        4.5030901963   -0.3405167813   -0.0640710158
H        3.7041115884   -0.1284877327    1.6019688153
H        0.6489002149   -0.8279641537   -0.8145951798
H        0.0419349859    2.3146573145   -2.9801402360
H       -0.1948400642    0.5586717312   -2.9448459471
H        1.4323988075    1.2168576532   -3.1123645247
H       -0.4502033807    2.5690306842    0.3755526182
H       -0.8510891425    0.8695506708    0.4015704049
H       -2.7681331889    2.0374840430   -0.3555086218
H       -2.1278519935    1.1985585764   -1.7906816259
H        1.3891639218    2.1654409723   -0.8719934517
19   
torsion grid (15,)
C        2.3745635000   -0.1034055966   -0.0790397557
C        3.5414959703   -0.2949359216    0.4946864982
C        1.2135879081    0.1102720454   -0.6529820920
C        0.5241455956    1.4907588423   -2.6110926577
C       -0.6042042797    1.8216061538   -0.2754635724
C       -1.9308040819    1.7946941273   -1.0156627497
C        0.6895980585    1.4727990926   -1.0798045639
F       -2.0343156992    2.8845802347   -1.9030618543
H        4.4370934217   -0.4875472964   -0.0941082735
H        3.6509260443   -0.2737517383    1.5779793072
H        0.5639275019   -0.7456574357   -0.8536105306
H        0.1514103596    2.4560352309   -2.9624300256
H       -0.1741506912    0.7184778909   -2.9509989079
H        1.4891321988    1.2914634650   -3.0865770195
H       -0.5022789657    2.8243478681    0.1542420932
H       -0.6942654494    1.1392370218    0.5774395688
H       -2.7623059496    1.8876746118   -0.3094190084
H       -2.0712925919    0.8852116223   -1.6084742905
H        1.4516873093    2.2101137149   -0.8142801490
19   
torsion grid (30,)
C        2.3123415784   -0.1312265777   -0.0964664671
C        3.4607027017   -0.3898537998    0.4883435381
C        1.1721354292    0.1497612124   -0.6827296424
C        0.5671906934    1.6040125108   -2.6122121048
C       -0.5690574874    1.9281561707   -0.2945154299
C       -1.9048499246    1.6299305680   -0.9563727729
C        0.7178237533    1.5468450709   -1.0810009916
F       -2.1587807856    2.5356748241   -2.0044021608
H        4.3550935663   -0.6072876949   -0.0935588048
H        3.5549428499   -0.4020624179    1.5732220668
H        0.4901735349   -0.6714182497   -0.9178509456
H        0.2391396796    2.5924010174   -2.9456614381
H       -0.1652654828    0.8749331921   -2.9722720717
H        1.5262537298    1.3732145620   -3.0856491355
H       -0.5582213277    3.0055192662   -0.0894477019
H       -0.5548977486    1.4311151597    0.6819129821
H       -2.7232979405    1.7458496882   -0.2386085804
H       -1.9528263959    0.6229015298   -1.3850468463
H        1.5053497363    2.2435079008   -0.7803414764
19   
torsion grid (45,)
C        2.2430846087   -0.1549681085   -0.1129566024
C        3.3564628539   -0.4626008198    0.5139822684
C        1.1389452689    0.1738078232   -0.7421818656
C        0.5993812245    1.7085807907   -2.6387703604
C       -0.5303340680    2.0174737270   -0.3336570664
C       -1.8574514354    1.4915958366   -0.8580112832
C        0.7413501665    1.5955336993   -1.1106521440
F       -2.2481667149    2.1846323045   -2.0206910895
H        4.2711884156   -0.6831215699   -0.0341093060
H        3.4000102045   -0.5138479138    1.6009159741
H        0.4533118083   -0.6234180028   -1.0386553439
H        0.2850684419    2.7143418929   -2.9341462673
H       -0.1449948585    1.0070855598   -3.0266616316
H        1.5565498301    1.4846052285   -3.1196386425
H       -0.6015168632    3.1123146156   -0.3245872020
H       -0.4284161829    1.7019869827    0.7112803076
H       -2.6533019814    1.6441391992   -0.1221974130
H       -1.8179353052    0.4282847042   -1.1185825046
H        1.5507147463    2.2555479835   -0.7833378108
19   
torsion grid (60,)
C        2.1647463867   -0.1732481995   -0.1404314164
C        3.2067117826   -0.5165505805    0.5828969031
C        1.1334995967    0.1905414391   -0.8670147438
C        0.6192400420    1.8194687926   -2.7024585775
C       -0.4832847194    2.0769148453   -0.3859758994
C       -1.7900020993    1.3672140824   -0.6999695260
C        0.7657565337    1.6319168961   -1.1825322852
F       -2.2846331860    1.7434177013   -1.9659230513
H        4.1782655325   -0.6974898605    0.1256060050
H        3.1321412861   -0.6387191663    1.6624229054
H        0.4970274687   -0.5894903347   -1.2897735396
H        0.3304090989    2.8480753009   -2.9427086995
H       -0.1481636723    1.1600514175   -3.1163234502
H        1.5675480838    1.5997004426   -3.2029111758
H       -0.6398944917    3.1529306373   -0.5332155316
H       -0.2843695798    1.9287409755    0.6827935829
H       -2.5607021894    1.6383837201    0.0284964776
H       -1.6818295676    0.2780316908   -0.7102948737
H        1.5914838534    2.2620841331   -0.8353410872
19   
torsion grid (75,)
C        2.0854201853   -0.1911805461   -0.1813432640
C        3.0724620780   -0.5813608961    0.5934523045
C        1.1086521094    0.2190632038   -0.9568347760
C        0.6610580864    1.9311985409   -2.7397837770
C       -0.4785878454    2.1317414880   -0.4415933734
C       -1.7127412717    1.2538563201   -0.5513208180
C        0.7762423980    1.6771851522   -1.2264831674
F       -2.1976765515    1.2040203398   -1.8754836484
H        4.0711921672   -0.7515155233    0.1943175694
H        2.9233233521   -0.7549938756    1.6581348446
H        0.4920275741   -0.5295211804   -1.4581912014
H        0.4324282175    2.9842234252   -2.9376350672
H       -0.1343926526    1.3294853467   -3.1862832114
H        1.6036015246    1.6864425174   -3.2398506567
H       -0.7392372836    3.1542997319   -0.7408310541
H       -0.2268187115    2.1673487043    0.6265309767
H       -2.5250548613    1.6505054977    0.0661046843
H       -1.5068948156    0.2226463810   -0.2495887461
H        1.6089464601    2.2785293055   -0.8459756017
19   
torsion grid (90,)
C        2.0225558980   -0.2115102646   -0.2188557638
C        2.9994342357   -0.6443402534    0.5462448638
C        1.0562243981    0.2396512829   -0.9846815322
C        0.7313058247    2.0153446359   -2.7369040463
C       -0.5236226165    2.1864011572   -0.5117300832
C       -1.6533786500    1.1760765214   -0.4354278141
C        0.7691751538    1.7103623599   -1.2286222809
F       -2.0498888620    0.7590490519   -1.7257782851
H        3.9932464183   -0.8330006433    0.1430951642
H        2.8462455631   -0.8366939525    1.6071040046
H        0.4143747197   -0.4782636296   -1.4985060502
H        0.5894756359    3.0883576480   -2.9069792588
H       -0.0913932039    1.4850144436   -3.2255149379
H        1.6687328716    1.7152009813   -3.2158378661
H       -0.8852396597    3.1064841959   -0.9845942207
H       -0.2817634950    2.4386572576    0.5292907803
H       -2.5374524390    1.6093059956    0.0431830059
H       -1.3527134589    0.2761719207    0.1082582691
H        1.5986318256    2.2797052246   -0.7964019316
19   
torsion grid (105,)
C        1.9772815655   -0.2320922174   -0.2592353421
C        2.9465806621   -0.6950085321    0.4978963900
C        1.0174084862    0.2473299575   -1.0160004074
C        0.8237951197    2.0804683107   -2.7258477236
C       -0.5873564093    2.2092754348   -0.5992452812
C       -1.6163122454    1.1325959202   -0.3149945132
C        0.7554679139    1.7272102527   -1.2293399097
F       -2.0174912338    0.5018947450   -1.5150495520
H        3.9394659885   -0.8846229138    0.0928823874
H        2.7879628593   -0.9124234556    1.5531310967
H        0.3651840629   -0.4493048266   -1.5449733768
H        0.7139579503    3.1609343773   -2.8704315318
H        0.0219244137    1.5820143609   -3.2812982189
H        1.7817742791    1.7728540283   -3.1567546531
H       -1.0410369875    2.9772021518   -1.2349604326
H       -0.3810716457    2.6860137853    0.3678673749
H       -2.5188987041    1.5581864712    0.1350833617
H       -1.2179876645    0.3500884775    0.3365411926
H        1.5633017489    2.2693576053   -0.7279288441
19   
torsion grid (120,)
C        1.9400452316   -0.2547419087   -0.3084833100
C        2.8976535787   -0.7435872810    0.4473586380
C        0.9908310926    0.2507815387   -1.0616350807
C        0.9175300711    2.1428448632   -2.7049956055
C       -0.6529506060    2.2029814058   -0.6930495425
C       -1.5844048016    1.1176510040   -0.1892514740
C        0.7401601277    1.7391362403   -1.2305924395
F       -2.0154661774    0.3061115489   -1.2630160593
H        3.8968734924   -0.9204980807    0.0522041641
H        2.7223926915   -0.9968720675    1.4919128761
H        0.3423768391   -0.4263933108   -1.6189094987
H        0.7952085544    3.2250615542   -2.8268805766
H        0.1710560548    1.6461018125   -3.3351273204
H        1.9113570494    1.8663962978   -3.0706101516
H       -1.1827153185    2.7687008793   -1.4672169987
H       -0.5033009161    2.8953300655    0.1447787538
H       -2.4852776088    1.5504430207    0.2573870775
H       -1.0979721200    0.4568531020    0.5336395789
H        1.5105529246    2.2556732486   -0.6501710141
19   
torsion grid (135,)
C        1.8977031517   -0.2792257107   -0.3626658783
C        2.8184885405   -0.7973115244    0.4191609669
C        0.9846557718    0.2563285047   -1.1390939950
C        0.9845333030    2.2166442943   -2.6877345347
C       -0.7031642381    2.1707572089   -0.7831280320
C       -1.5255842221    1.1220652196   -0.0567548298
C        0.7285029358    1.7503850168   -1.2440301961
F       -1.9620835261    0.1340718708   -0.9658235397
H        3.8396122486   -0.9470153446    0.0715303781
H        2.5891416975   -1.1045533184    1.4384582320
H        0.3712019985   -0.3971606031   -1.7599473721
H        0.8221462473    3.2965307283   -2.7842673131
H        0.3029588051    1.7111570595   -3.3813054374
H        2.0107316128    1.9948447228   -2.9964168863
H       -1.2920432502    2.4953139084   -1.6487968389
H       -0.6247821723    3.0438271786   -0.1240373313
H       -2.4270272101    1.5646986148    0.3790031253
H       -0.9557963432    0.6083192585    0.7229399566
H        1.4547548092    2.2422968482   -0.5897484575
19   
torsion grid (150,)
C        2.0631786321    0.1362718007    0.4054546860
C        3.0926609886   -0.1233040888    1.1794571896
C        1.0396446542    0.4162435391   -0.3674073267
C        0.6712098314    1.6378155301   -2.5009925791
C       -0.5436337726    2.4223940531   -0.4152228867
C       -0.9012824913    1.9893180831    0.9981860859
C        0.7585865532    1.7842145867   -0.9724146343
F       -2.0418389832    2.6984886104    1.4237653594
H        4.0445976382   -0.4518027990    0.7652441969
H        3.0259292662   -0.0256164268    2.2620059876
H        0.3417940874   -0.3858007031   -0.6194318175
H        0.4462929994    2.5996946654   -2.9759832407
H       -0.1250015872    0.9362345032   -2.7742199092
H        1.6121344994    1.2618387508   -2.9144496401
H       -1.3875965993    2.1598056704   -1.0646317150
H       -0.4558528378    3.5134567533   -0.4417653745
H       -0.0996136489    2.2060868926    1.7119151081
H       -1.1455042901    0.9258146385    1.0547491837
H        1.6024017831    2.4325197866   -0.7171902979
19   
torsion grid (165,)
C        2.0391271613    0.0855784106    0.3773449334
C        3.0709754892   -0.1951016980    1.1408429134
C        1.0137210277    0.3872201620   -0.3847674484
C        0.7387819709    1.6995137702   -2.4860679908
C       -0.6237902775    2.3242281005   -0.4454635008
C       -0.8600134629    2.0934009003    1.0384323002
C        0.7281091825    1.7700339409   -0.9496042548
F       -2.0442339736    2.7469109541    1.4318951957
H        4.0221934483   -0.5110472698    0.7152846977
H        3.0069888440   -0.1285097470    2.2258806099
H        0.3123915354   -0.4053554614   -0.6575833521
H        0.5139911009    2.6779809364   -2.9258299341
H       -0.0150864991    0.9899858341   -2.8453645214
H        1.7152378865    1.3720412174   -2.8556008176
H       -1.4448334547    1.8545783822   -1.0016577874
H       -0.6747468180    3.3989140580   -0.6519575764
H       -0.0463188079    2.5010148975    1.6485467001
H       -0.9825051683    1.0339834555    1.2761791017
H        1.5281175380    2.4383030030   -0.6134408926
19   
torsion grid (180,)
C        2.0254475628    0.0283199683    0.3468226156
C        3.0461842886   -0.2643221848    1.1206672261
C        1.0099694045    0.3416800545   -0.4240569781
C        0.7836696033    1.7706250202   -2.4679268549
C       -0.6836335480    2.2161006879   -0.4538316910
C       -0.8241494935    2.2078911254    1.0590009243
C        0.7027605361    1.7402843942   -0.9322338392
F       -2.0726866396    2.7489429388    1.4216537814
H        4.0125167006   -0.5423073762    0.7027590227
H        2.9577242310   -0.2460918430    2.2058998390
H        0.3293868934   -0.4514009562   -0.7440728297
H        0.5695021945    2.7747872468   -2.8504806317
H        0.0560550737    1.0807362801   -2.9106531000
H        1.7798323949    1.4758730932   -2.8112893898
H       -1.4654926831    1.5802370232   -0.8878183786
H       -0.8605528077    3.2348285687   -0.8174786706
H       -0.0536317028    2.8225183514    1.5378504518
H       -0.7777199679    1.1962087888    1.4704932122
H        1.4629246821    2.4187626653   -0.5282363338
