19   
torsion grid (-165,)
C        0.7150142101   -1.1131139413   -1.6313160080
C       -0.4796864828    1.0902807666   -2.0419977650
C       -0.0394628018    0.3899345273    0.8817085086
C       -0.5779729182   -0.3064961171   -1.4208881126
N       -1.3728897838   -1.4673352544    0.6079349878
N       -1.0473596539   -0.1865886695   -0.0078134484
O       -2.0814240368   -2.2837496995   -0.3343833187
H        0.6523636197   -2.1146172173   -1.1917304514
H        0.8889927190   -1.2482338315   -2.7037023002
H        1.5936791326   -0.6075189345   -1.2171088344
H       -1.3839194727    1.6677433636   -1.8275576856
H       -0.3723323508    1.0065797055   -3.1284429240
H        0.3854154964    1.6516964578   -1.6729292214
H       -0.4720705422    0.4954539245    1.8804140241
H        0.8764587468   -0.2216618619    0.9673212540
H        0.2390947518    1.3811637966    0.5220317229
H       -1.3838502875   -0.8361548069   -1.9313211489
H       -0.4957851451   -2.0032555223    0.6857799443
H       -3.0038504067   -2.2057264512   -0.0388916608
19   
torsion grid (-150,)
C        0.3901175976   -1.4752757245   -1.8010632337
C        0.1206139950    1.0097003082   -1.7356859454
C       -1.2644434300    0.5370827592    0.9301105928
C       -0.3679192470   -0.3187725723   -1.1422211245
N       -0.3696904202   -1.6105296124    0.9005874441
N       -0.1949305386   -0.2764606264    0.3388365924
O        0.9390503081   -2.2262291022    0.9657491733
H        1.4531042633   -1.4470518103   -1.5460816148
H       -0.0248070755   -2.4446929552   -1.5129776468
H        0.2901869928   -1.3906426871   -2.8880414944
H       -0.4384829925    1.8739363150   -1.3676921206
H        0.0123104604    0.9928040112   -2.8249210732
H        1.1775515250    1.1601714107   -1.4941102048
H       -1.1084172571    0.6196051773    2.0117778221
H       -1.2237767054    1.5460665419    0.5212793532
H       -2.2700735409    0.1222683644    0.7440148944
H       -1.4393335671   -0.4485657835   -1.3787335723
H       -0.5538572433   -1.4306961374    1.8891658971
H        0.8282918963   -3.0121321756    0.4076951374
19   
torsion grid (-135,)
C        0.4457207110   -1.4594463807   -1.8189563786
C        0.0105659992    1.0086225038   -1.7565195566
C       -1.1333447302    0.5828352875    0.9596964282
C       -0.3895950222   -0.3513657958   -1.1694335486
N       -0.4438083512   -1.6662172236    0.8240731244
N       -0.2018939751   -0.3391825647    0.3055074489
O        0.8441608243   -2.2690803660    1.1179499504
H        1.5019381830   -1.3555675752   -1.5514103232
H        0.0959560894   -2.4502806438   -1.5183991340
H        0.3537127542   -1.3967966325   -2.9078958538
H       -0.6678058505    1.8148915019   -1.4655063629
H       -0.0005090902    0.9574104306   -2.8496230388
H        1.0229599531    1.2747357153   -1.4346160451
H       -0.9603876294    0.5645475034    2.0410317833
H       -0.9412554306    1.6013065110    0.6227786974
H       -2.1938614760    0.3439205872    0.7618972185
H       -1.4524319560   -0.5450527061   -1.4016849936
H       -0.8101912114   -1.5233438786    1.7653283328
H        0.8755652297   -3.0113505727    0.4934711276
19   
torsion grid (-120,)
C        0.4684014003   -1.4463555501   -1.8526085842
C       -0.0500296682    1.0076507011   -1.7627246825
C       -1.0392239321    0.5931427161    0.9764243101
C       -0.4063457490   -0.3731135670   -1.1973914413
N       -0.4864288875   -1.7100495074    0.7638728764
N       -0.2161521590   -0.3922836491    0.2745343208
O        0.7445392925   -2.2664075933    1.3036435325
H        1.5238013927   -1.2782608773   -1.6125902129
H        0.1818498296   -2.4468118488   -1.5198428741
H        0.3497838514   -1.4109832536   -2.9402836389
H       -0.7672498542    1.7813144544   -1.4759390578
H       -0.0391643760    0.9664014814   -2.8561806821
H        0.9454299259    1.3119264236   -1.4212446108
H       -0.8561338664    0.5084364589    2.0520654925
H       -0.7489029694    1.6022012341    0.6817075818
H       -2.1215115906    0.4741940441    0.7845652241
H       -1.4623402470   -0.5931606646   -1.4371062636
H       -1.0412232327   -1.6077425390    1.6130948630
H        0.9763958604   -2.9395127627    0.6436927231
19   
torsion grid (-105,)
C        0.4827789453   -1.4318637383   -1.9003571203
C       -0.0973817991    1.0076288210   -1.7663120098
C       -0.9486174657    0.5825969688    0.9909848254
C       -0.4151262345   -0.3913035029   -1.2247077761
N       -0.5153869098   -1.7478363142    0.7131057728
N       -0.2151071467   -0.4402981312    0.2446491413
O        0.6041617461   -2.2439937760    1.4988117192
H        1.5363505118   -1.2175592447   -1.6890227455
H        0.2483915875   -2.4393143437   -1.5496806108
H        0.3358960992   -1.4081902854   -2.9851025144
H       -0.8280912214    1.7587076495   -1.4546084550
H       -0.1009741286    0.9858873701   -2.8603607431
H        0.8962419937    1.3288643020   -1.4345034494
H       -0.7506245986    0.4447460401    2.0577797374
H       -0.5932987034    1.5790885877    0.7244402223
H       -2.0402818771    0.5461035462    0.8185034045
H       -1.4669980914   -0.6287489934   -1.4654027111
H       -1.2370044306   -1.6800290931    1.4316267597
H        1.0605667441   -2.8239001615    0.8678454291
19   
torsion grid (-90,)
C        0.4832189338   -1.4195992832   -1.9611370247
C       -0.1294372208    1.0090450662   -1.7672129355
C       -0.8683807333    0.5512162349    1.0033282532
C       -0.4159064595   -0.4050320070   -1.2487567802
N       -0.5121544101   -1.7840010132    0.6684167142
N       -0.1901999785   -0.4793569538    0.2147862617
O        0.4450148430   -2.1807863444    1.6852256528
H        1.5373365369   -1.1768708271   -1.7858704172
H        0.2913683173   -2.4328387609   -1.6032324848
H        0.2981078375   -1.3943448941   -3.0401378456
H       -0.8599511503    1.7439713069   -1.4187816860
H       -0.1629331322    1.0092049226   -2.8609481252
H        0.8693785680    1.3354864374   -1.4567099080
H       -0.6632857696    0.3605822722    2.0600270399
H       -0.4738448161    1.5411958128    0.7682377298
H       -1.9626825969    0.5638384615    0.8435267931
H       -1.4697102380   -0.6478155670   -1.4774916985
H       -1.3698766363   -1.7475512894    1.2255319174
H        1.1094331260   -2.6657578733    1.1688874199
19   
torsion grid (-75,)
C        0.4807463874   -1.4066374490   -2.0214559343
C       -0.1594053713    1.0105010517   -1.7689550636
C       -0.7908451485    0.5151024398    1.0148547438
C       -0.4095265542   -0.4156377233   -1.2650620469
N       -0.4723107613   -1.8177893870    0.6311814056
N       -0.1439863542   -0.5060881810    0.1878384080
O        0.2718605021   -2.0911140940    1.8409598704
H        1.5352874390   -1.1428864389   -1.8842747591
H        0.3276925606   -2.4262580644   -1.6644588150
H        0.2530094146   -1.3739298592   -3.0921439060
H       -0.8834482647    1.7304159435   -1.3785041052
H       -0.2357922838    1.0278623276   -2.8603445887
H        0.8472776101    1.3428417320   -1.4922193846
H       -0.5835613099    0.2785998858    2.0608493254
H       -0.3728556752    1.5018865684    0.8079087807
H       -1.8861510139    0.5565933626    0.8634584994
H       -1.4682696481   -0.6654260734   -1.4687502220
H       -1.4293036273   -1.8172191534    1.0045216327
H        1.0750771196   -2.5202311869    1.5022850355
19   
torsion grid (-60,)
C        0.4753827430   -1.3929671835   -2.0680686917
C       -0.1897723400    1.0130831236   -1.7723867518
C       -0.7174489183    0.4908728715    1.0276358816
C       -0.3985213242   -0.4196883556   -1.2684457367
N       -0.3911830714   -1.8466397040    0.6017369062
N       -0.0837956516   -0.5135295446    0.1702745939
O        0.0897199221   -2.0125025968    1.9486796606
H        1.5308743259   -1.1206658943   -1.9598247885
H        0.3480133936   -2.4198163554   -1.7228017666
H        0.2122613261   -1.3446757755   -3.1299810488
H       -0.9093660796    1.7189429818   -1.3498071920
H       -0.3074154271    1.0347500769   -2.8599863812
H        0.8214876339    1.3587629642   -1.5315464416
H       -0.4928961229    0.2392581602    2.0645892892
H       -0.3035127551    1.4789807742    0.8200807101
H       -1.8165574251    0.5315268473    0.8981226408
H       -1.4630635128   -0.6818926154   -1.4348816498
H       -1.4069326585   -1.9050801085    0.7679091851
H        0.9582209628   -2.4281339652    1.8163904572
19   
torsion grid (-45,)
C        0.3000564539   -1.5546454704   -1.9241982013
C        0.1467053065    0.9802246512   -1.9514464458
C        1.1293880118   -0.1994503664    0.7006448263
C       -0.3572583577   -0.3125488810   -1.3000753542
N       -1.1128572600   -1.1156854502    0.8061560427
N       -0.2364218724   -0.2232305376    0.1755065911
O       -0.5635526826   -2.4564976566    1.0541074166
H       -0.0639482423   -2.4680503438   -1.4487140419
H        0.0669058943   -1.5994548730   -2.9937870394
H        1.3917429433   -1.5247579719   -1.8299173018
H       -0.2905774555    1.8570602690   -1.4642648752
H       -0.1355998118    0.9951877748   -3.0090023334
H        1.2382224541    1.0665468677   -1.9086342273
H        1.0945976339   -0.0347813046    1.7847947822
H        1.7066730452   -1.1131689470    0.4984348372
H        1.6690706357    0.6436851307    0.2650548034
H       -1.4359373110   -0.3787324516   -1.4651546776
H       -1.2825737938   -0.7458377231    1.7435180526
H        0.2149584799   -2.3554060450    1.6348448763
19   
torsion grid (-30,)
C        0.2849153101   -1.5427948013   -1.9380040495
C        0.1616372703    0.9972286777   -1.9396357323
C        1.1314572531   -0.2315704927    0.6731281006
C       -0.3568029247   -0.2978167706   -1.3061100402
N       -1.0950123801   -1.2141777807    0.7490020380
N       -0.2463011340   -0.2288010764    0.1773244679
O       -0.4334697815   -2.4430999484    1.1667694409
H       -0.0768738719   -2.4535976707   -1.4545217040
H        0.0319642309   -1.5915613347   -3.0028886819
H        1.3779161501   -1.5207695672   -1.8630049344
H       -0.2640602281    1.8722430423   -1.4387044259
H       -0.1245583306    1.0308080537   -2.9957511334
H        1.2540094091    1.0713686823   -1.9002404893
H        1.1297256702   -0.0840428052    1.7610131525
H        1.6908328119   -1.1465528384    0.4392658515
H        1.6624201480    0.6189100810    0.2423664349
H       -1.4348710556   -0.3490696632   -1.4803116750
H       -1.4351343768   -0.8151521372    1.6262882199
H        0.2217999009   -2.2110949792    1.8518828903
19   
torsion grid (-15,)
C        0.2936114592   -1.5230805552   -1.9611741789
C        0.1511173864    1.0188054917   -1.9238982830
C        1.1578174931   -0.2839073763    0.6420456357
C       -0.3499365424   -0.2911694335   -1.3081529986
N       -1.0689251112   -1.3002625755    0.7051669550
N       -0.2311152393   -0.2461182026    0.1792031258
O       -0.3673002555   -2.4043060924    1.3158780589
H       -0.0483113841   -2.4397922177   -1.4730624327
H        0.0156955824   -1.5739226392   -3.0196738239
H        1.3874689335   -1.4884008311   -1.9117155545
H       -0.2817600835    1.8806839668   -1.4065500250
H       -0.1410883674    1.0659611391   -2.9779343207
H        1.2425631312    1.1057922893   -1.8891061698
H        1.1955306598   -0.1202014204    1.7268332592
H        1.6860827754   -1.2154837605    0.4065904526
H        1.6924655738    0.5509838033    0.1867346785
H       -1.4285313292   -0.3465607366   -1.4788762676
H       -1.5709823492   -0.8720145960    1.4855502188
H        0.1451917385   -2.0565495820    2.0700094009
19   
torsion grid (0,)
C        0.3168330770   -1.4987745568   -1.9962750375
C        0.1203926097    1.0397332364   -1.9017635409
C        1.2037337750   -0.3542256649    0.6100134086
C       -0.3393683118   -0.2945798816   -1.3064927473
N       -1.0316898619   -1.3748800166    0.6786300967
N       -0.1936590010   -0.2755548335    0.1790240661
O       -0.3470900429   -2.3309609779    1.4964585423
H        0.0098778041   -2.4300634308   -1.5119183789
H        0.0106052090   -1.5431543339   -3.0471511827
H        1.4102806452   -1.4360856745   -1.9760087344
H       -0.3342114558    1.8788690990   -1.3662183331
H       -0.1774057495    1.0973228216   -2.9538035850
H        1.2088938681    1.1578116909   -1.8687332550
H        1.2809473438   -0.1678114719    1.6876843146
H        1.6957626432   -1.3073216649    0.3828852149
H        1.7483631109    0.4542954188    0.1198212763
H       -1.4196257808   -0.3681493509   -1.4630582631
H       -1.6815753331   -0.9175963647    1.3212108019
H       -0.0014704777   -1.8684173724    2.2835630671
19   
torsion grid (15,)
C        0.3358867999   -1.4778973090   -2.0356113105
C        0.0860800009    1.0528236778   -1.8728942745
C        1.2568959384   -0.4233779740    0.5844155339
C       -0.3288656433   -0.3059163141   -1.2994002590
N       -0.9751061502   -1.4500045243    0.6643606951
N       -0.1458479736   -0.3141908945    0.1788909077
O       -0.3452575635   -2.2176103095    1.6835168690
H        0.0663516998   -2.4266934906   -1.5634814928
H        0.0001155816   -1.5060221302   -3.0778965035
H        1.4273667878   -1.3864898039   -2.0446168563
H       -0.3756022045    1.8678353726   -1.3073400789
H       -0.2334588157    1.1283265813   -2.9174135421
H        1.1720902110    1.1941871345   -1.8563834977
H        1.3639790059   -0.2368414250    1.6571091613
H        1.7251227363   -1.3880612575    0.3511418225
H        1.8054271684    0.3710994740    0.0749757631
H       -1.4116248733   -0.3988052501   -1.4365948621
H       -1.7566376307   -0.9847642449    1.1313136959
H       -0.1873210037   -1.6371406416    2.4537759593
19   
torsion grid (30,)
C        0.3500954451   -1.4572087722   -2.0739655182
C        0.0477673783    1.0614706861   -1.8327659041
C        1.3125259582   -0.4982661532    0.5633821005
C       -0.3202728645   -0.3215225103   -1.2862395266
N       -0.9034794850   -1.5183795109    0.6640458882
N       -0.0947217074   -0.3616029295    0.1818309966
O       -0.3711306018   -2.0630516846    1.8599163971
H        0.1211413976   -2.4246987986   -1.6194253547
H       -0.0166212834   -1.4657303622   -3.1060201320
H        1.4378957790   -1.3352434074   -2.1123932113
H       -0.4434437851    1.8490564229   -1.2538511945
H       -0.2677399556    1.1457464549   -2.8778947282
H        1.1282435640    1.2381757396   -1.8049477768
H        1.4428811540   -0.3148374510    1.6316162217
H        1.7507380171   -1.4773080089    0.3247663302
H        1.8697546098    0.2783570734    0.0354583967
H       -1.4054458060   -0.4343802072   -1.4000053346
H       -1.7885057359   -1.0803587847    0.9329923005
H       -0.3700880068   -1.3597611250    2.5413677802
19   
torsion grid (45,)
C        0.3567850180   -1.4152604418   -2.1235311993
C        0.1770246008    1.0608813978   -1.7994030709
C       -0.7724616232    0.5991302080    0.9007322133
C       -0.3393407602   -0.3040715545   -1.3256333183
N       -0.4812460231   -1.7221105606    0.6682339113
N       -0.0867789908   -0.4569771763    0.1432863697
O       -1.9138231425   -1.8487866684    0.9078580777
H       -0.0749131746   -2.4085149730   -1.9591778876
H        0.2635737332   -1.2145955689   -3.1948782335
H        1.4213831238   -1.4556506424   -1.8705779287
H       -0.4070021590    1.8918778400   -1.3983324087
H        0.1255629082    1.1211988098   -2.8907034640
H        1.2214118778    1.1923658424   -1.4961609718
H       -0.7593186140    0.3245194222    1.9566357362
H       -0.2317618818    1.5389139451    0.7796691392
H       -1.8175318005    0.7404230267    0.5930988174
H       -1.4257127567   -0.3449070956   -1.5341174970
H       -0.2301405594   -2.4356342738   -0.0126377652
H       -2.3852949817   -1.7744013024    0.0527470424
19   
torsion grid (60,)
C        0.2044404320   -1.4339209602   -2.0858800333
C        0.2605953135    1.0587523763   -1.8049548614
C       -0.8340312749    0.6394436395    0.9316107941
C       -0.3707068327   -0.2467054859   -1.3033619091
N       -0.4211785277   -1.6502706343    0.7107828122
N       -0.1205448282   -0.3884905693    0.1627168876
O       -1.8466156546   -1.9849813185    0.6842184283
H       -0.3213223759   -2.3759449799   -1.8928596199
H        0.1159724878   -1.2434695359   -3.1591277593
H        1.2656169524   -1.5746392650   -1.8524666176
H       -0.2203907600    1.9427448394   -1.3805032832
H        0.1671903821    1.1268178595   -2.8932419228
H        1.3239170550    1.0861015135   -1.5444425434
H       -0.7512477419    0.3849393451    1.9892875528
H       -0.3682842912    1.6127349527    0.7683667129
H       -1.8994952180    0.6983471765    0.6690506343
H       -1.4571528808   -0.1911271493   -1.4995451714
H        0.0509288139   -2.3550382312    0.1471516660
H       -2.1372762567   -2.0168933387   -0.2496942046
19   
torsion grid (75,)
C        0.1969377962   -1.4423656638   -2.0601704566
C        0.2202482087    1.0531165975   -1.8023410169
C       -0.7761294560    0.6843582192    0.9592214077
C       -0.4052466500   -0.2539816237   -1.2984562579
N       -0.5110338830   -1.6281865870    0.7331332858
N       -0.1790409393   -0.3926478790    0.1626327988
O       -1.8986254329   -2.0447885289    0.4950497409
H       -0.2960826352   -2.3962192494   -1.8401881491
H        0.0964172680   -1.2796241551   -3.1368736566
H        1.2624578507   -1.5468117813   -1.8286062409
H       -0.2830277642    1.9351554333   -1.4000964728
H        0.1473529790    1.1045001047   -2.8931110114
H        1.2780536554    1.0998573765   -1.5224881493
H       -0.6687690747    0.4157512465    2.0104822515
H       -0.2450463222    1.6211985442    0.7800530836
H       -1.8450493368    0.8291238447    0.7405835083
H       -1.4885736834   -0.2075974278   -1.5108979831
H        0.0631610429   -2.3380769120    0.2796577142
H       -2.0275888292   -2.1243613241   -0.4704768342
19   
torsion grid (90,)
C        0.2211018400   -1.4395406983   -2.0424377679
C        0.1544436944    1.0536940048   -1.7962557765
C       -0.6942579014    0.7229921226    0.9782688353
C       -0.4436006375   -0.2694536342   -1.3021065962
N       -0.6398361426   -1.6165730084    0.7462251755
N       -0.2568040733   -0.4071282875    0.1559619382
O       -1.9616791530   -2.1052750552    0.3355622656
H       -0.2085341318   -2.4168412651   -1.7941047225
H        0.1053372459   -1.3101382372   -3.1222998289
H        1.2911216524   -1.4754233044   -1.8121056351
H       -0.3850080604    1.9211196086   -1.4091757974
H        0.1018778662    1.0957300083   -2.8885642287
H        1.2051355267    1.1352410245   -1.4977066674
H       -0.5926491227    0.4257477998    2.0217818139
H       -0.0543315803    1.5893198733    0.7965821991
H       -1.7423004571    1.0105793045    0.7953107032
H       -1.5206374902   -0.2551542488   -1.5466455089
H        0.0042425166   -2.3330200740    0.4104232535
H       -1.9432067980   -2.2374756989   -0.6316060925
19   
torsion grid (105,)
C        1.0201823853   -1.0164401936   -1.6456055667
C       -0.3978033565    1.0280910235   -2.1397585774
C       -0.2605365723    0.3330552427    0.8368116407
C       -0.3861744810   -0.3891081891   -1.5562707727
N       -1.2838165819   -1.7070441736    0.2618392334
N       -0.9751942014   -0.3987660793   -0.2061771365
O       -2.7140980023   -1.7425486372    0.5813175942
H        1.0389586590   -2.0319814000   -1.2358156206
H        1.3494611675   -1.0671001336   -2.6889752408
H        1.7545993067   -0.4202853182   -1.0942242032
H       -1.3907380215    1.4747052411   -2.0384391071
H       -0.1331144609    0.9961641137   -3.2015766420
H        0.3294167910    1.6779483676   -1.6421545990
H       -0.8716570493    0.3223352184    1.7424087655
H        0.7266977638   -0.0889782462    1.0811305497
H       -0.1394998561    1.3758303373    0.5341746000
H       -1.0723365522   -0.9901054494   -2.1674907260
H       -1.2513921743   -2.3195299584   -0.5540272035
H       -2.7025399696   -1.9478415312    1.5299405741
19   
torsion grid (120,)
C        1.0172712138   -1.0251416560   -1.6950208232
C       -0.4580102316    0.9986636577   -2.0964744332
C       -0.1819763044    0.3521819694    0.8866549169
C       -0.3880470063   -0.4176182245   -1.5145882183
N       -1.2757737650   -1.6834936015    0.3669770335
N       -0.8639104633   -0.4456593672   -0.1242895920
O       -2.7423787255   -1.7983892314    0.2492972198
H        1.0728917979   -2.0452779210   -1.2978879263
H        1.2871184025   -1.0664632928   -2.7557983011
H        1.7745611448   -0.4242122187   -1.1803908826
H       -1.4491142517    1.4304311478   -1.9311356764
H       -0.2633943421    0.9710897009   -3.1735346781
H        0.2900677639    1.6599879279   -1.6466175635
H       -0.7548553415    0.2944680049    1.8139574437
H        0.8484252657    0.0235523114    1.1004819183
H       -0.1538337326    1.3990601570    0.5728666243
H       -1.1090437584   -1.0286861591   -2.0703444313
H       -0.9829600555   -2.4182397913   -0.2776955138
H       -3.0266228166   -1.6878531791    1.1706504455
19   
torsion grid (135,)
C        0.9825531327   -1.0199954992   -1.6783904634
C       -0.4983921452    0.9988720500   -2.0843125078
C       -0.1195499529    0.3403796593    0.9058169318
C       -0.4183896725   -0.4089219466   -1.4847868402
N       -1.2789264820   -1.6581550003    0.4165371570
N       -0.8800861714   -0.4138051900   -0.0848631448
O       -2.6831248762   -1.8909107145    0.0715059378
H        1.0543820620   -2.0264924536   -1.2493747397
H        1.2213630648   -1.1010069294   -2.7441313873
H        1.7540847325   -0.4001910598   -1.2094889921
H       -1.4883986524    1.4302446640   -1.9113657394
H       -0.3185013420    0.9587581096   -3.1636331435
H        0.2532375587    1.6685149574   -1.6527891914
H       -0.6650092511    0.3129693047    1.8508912141
H        0.8967603107   -0.0467608428    1.0857398336
H       -0.0387896982    1.3831211543    0.5870648306
H       -1.1499279202   -1.0282649038   -2.0157812961
H       -0.8394525633   -2.4122192387   -0.1160938408
H       -3.1434173399   -1.5977358863    0.8745629438
19   
torsion grid (150,)
C        0.9449146136   -1.0119179926   -1.6515520464
C       -0.5369983755    1.0012267502   -2.0824400455
C       -0.0626096271    0.3259467132    0.9157051546
C       -0.4523095142   -0.3944772651   -1.4570792679
N       -1.2948933405   -1.6204913829    0.4668254026
N       -0.9135114976   -0.3627671668   -0.0513391485
O       -2.6001342622   -1.9655840976   -0.0708399023
H        1.0280322794   -2.0035214294   -1.1906267523
H        1.1596918256   -1.1333467616   -2.7183549997
H        1.7277949340   -0.3765132035   -1.2244650017
H       -1.5274312408    1.4331921745   -1.9135434792
H       -0.3611633769    0.9426814737   -3.1616641574
H        0.2134730364    1.6816364942   -1.6656348652
H       -0.5841401343    0.3535267534    1.8744605089
H        0.9197068895   -0.1489862418    1.0724330925
H        0.1035541442    1.3535309893    0.5819124635
H       -1.1893534792   -1.0246449442   -1.9658041536
H       -0.7299347829   -2.3643678594    0.0445552248
H       -3.2042732974   -1.5967227693    0.5945595352
19   
torsion grid (165,)
C        0.8982621810   -1.0137339292   -1.6298158574
C       -0.5562721066    1.0159563434   -2.0789621236
C       -0.0218985137    0.3189560335    0.9144845511
C       -0.4875021906   -0.3722392254   -1.4356130169
N       -1.3251070210   -1.5692265161    0.5165744182
N       -0.9525784581   -0.3029518187   -0.0258979931
O       -2.4908192128   -2.0400894301   -0.1933992272
H        0.9750682075   -1.9958288021   -1.1478654593
H        1.0924120769   -1.1665693204   -2.6963979988
H        1.6989585252   -0.3803862722   -1.2339712113
H       -1.5387024569    1.4649123904   -1.9075717786
H       -0.3910203878    0.9405881728   -3.1588847508
H        0.2069857796    1.6920518077   -1.6782504008
H       -0.5164033511    0.4078884241    1.8842279455
H        0.9162838166   -0.2428753674    1.0563246393
H        0.2308952506    1.3206893038    0.5589714941
H       -1.2337742301   -1.0006529813   -1.9302968458
H       -0.6429310028   -2.2824069010    0.2302524918
H       -3.2214421117   -1.7056816773    0.3531986858
19   
torsion grid (180,)
C        0.8253224119   -1.0438719802   -1.6231006047
C       -0.5394664081    1.0492445901   -2.0661893761
C       -0.0127548572    0.3365790803    0.9012094563
C       -0.5292758572   -0.3411629292   -1.4240288640
N       -1.3531002574   -1.5144727844    0.5656217545
N       -0.9982989873   -0.2417707809   -0.0119387924
O       -2.3254162237   -2.1492782758   -0.2805951596
H        0.8577815202   -2.0312511983   -1.1475728275
H        1.0043969368   -1.2021131576   -2.6914448905
H        1.6585039102   -0.4505572092   -1.2321903781
H       -1.4964493679    1.5457865661   -1.8816710967
H       -0.3946287822    0.9645012050   -3.1483172452
H        0.2613177091    1.6892421437   -1.6796364195
H       -0.4774842819    0.4676517978    1.8814363141
H        0.8920109171   -0.2824584098    1.0290304942
H        0.2935683265    1.3154544645    0.5275235686
H       -1.2980362114   -0.9386172406   -1.9191643479
H       -0.5609170969   -2.1614725041    0.4479318593
H       -3.1666586067   -1.9230331432    0.1502041176
