24   
torsion grid (-165,)
C       -1.5810050552   -0.2136416471    0.6589264668
C       -0.0672807118   -0.4330223656    0.4878233042
C        0.7012658240    0.6232497981    1.3002877078
C        0.3029026704   -1.8372175192    0.9974076428
C        0.3296330541   -0.3430176377   -1.0143561674
C       -0.0429647547    0.9461749154   -1.6990601147
C        0.7663184983    1.9788394768   -1.9830144708
C        2.2378157954    2.0946982004   -1.6837635562
H       -2.1554470092   -0.9256985743    0.0542129843
H       -1.8756130189   -0.3509083780    1.7056598211
H       -1.8754631435    0.7977196831    0.3612725142
H        1.7840515978    0.4741470338    1.2159510834
H        0.4729233005    1.6347286406    0.9507466235
H        0.4369721713    0.5632608118    2.3623630353
H        1.3751504424   -2.0320074890    0.8776537413
H        0.0605814741   -1.9454787602    2.0608995098
H       -0.2423801324   -2.6143091730    0.4490188254
H        1.4075545772   -0.5211606067   -1.0923221069
H       -0.1599592863   -1.1725762826   -1.5420112155
H       -1.0902084719    1.0441408219   -1.9843961353
H        0.3241034444    2.8386737057   -2.4874336117
H        2.6920628925    1.1354958301   -1.4246543931
H        2.4141464736    2.7835024121   -0.8474135116
H        2.7773088994    2.5000772601   -2.5476397282
24   
torsion grid (-150,)
C       -1.5448276789   -0.3672839815    0.6613061162
C       -0.0281346345   -0.5604368689    0.4851645627
C        0.7248448013    0.5040489290    1.3015327480
C        0.3668744446   -1.9609200509    0.9861916336
C        0.3633798630   -0.4555493116   -1.0174344538
C       -0.0248598213    0.8337222135   -1.6923202758
C        0.7809091741    1.8690165774   -1.9766734141
C        2.2578922992    1.9719448705   -1.6864855812
H       -2.1088956218   -1.0861136115    0.0548817025
H       -1.8342119199   -0.5142137213    1.7081832890
H       -1.8570824230    0.6403266747    0.3690973049
H        1.8096171538    0.3749795365    1.2105493710
H        0.4756812297    1.5134905317    0.9602266863
H        0.4669228682    0.4318856497    2.3644244008
H        1.4422769020   -2.1361223559    0.8646352730
H        0.1272510592   -2.0795382799    2.0491924358
H       -0.1651461578   -2.7442130493    0.4336385486
H        1.4439890590   -0.6169207228   -1.0979272531
H       -0.1167825285   -1.2882315589   -1.5489900284
H       -1.0746627852    0.9286798346   -1.9688852406
H        0.3353115989    2.7293440710   -2.4761877659
H        2.7527675977    0.9966549916   -1.6913504593
H        2.4411993326    2.4321443468   -0.7072101929
H        2.7558198309    2.5987133055   -2.4336327069
24   
torsion grid (-135,)
C       -1.4980729069   -0.4998349441    0.6893180590
C        0.0251146918   -0.6506826405    0.5279187622
C        0.7405532529    0.4179139333    1.3722949357
C        0.4499040152   -2.0492949130    1.0094797703
C        0.4318095200   -0.5089718539   -0.9675299900
C        0.0178357274    0.7806971747   -1.6253102947
C        0.8182747055    1.8152815316   -1.9252812211
C        2.3057340888    1.8989871522   -1.6681702107
H       -2.0364213354   -1.2186505462    0.0599513595
H       -1.7957167825   -0.6780993864    1.7289734561
H       -1.8331696080    0.5058867479    0.4166875296
H        1.8291738814    0.3094432685    1.3027777988
H        0.4792374651    1.4266459839    1.0375368316
H        0.4624895582    0.3282963424    2.4287673348
H        1.5304098019   -2.1957937914    0.8956375389
H        0.2032386445   -2.1915743817    2.0679664921
H       -0.0572862926   -2.8360366416    0.4387847871
H        1.5176150144   -0.6373893652   -1.0383346423
H       -0.0190941162   -1.3455072401   -1.5188876334
H       -1.0386643726    0.8741083161   -1.8752168280
H        0.3638399738    2.6798815538   -2.4081523304
H        2.8242335013    0.9755696216   -1.9466920537
H        2.5230151035    2.0903974557   -0.6104714915
H        2.7549287932    2.7130189125   -2.2445646103
24   
torsion grid (-120,)
C       -1.4719704292   -0.3852464122    0.6142379296
C        0.0538640361   -0.5395214637    0.4826812728
C        0.7546004357    0.5429735953    1.3218129368
C        0.4682248556   -1.9301015272    0.9955761660
C        0.4879365679   -0.4232008714   -1.0070039813
C        0.0796568514    0.8506350950   -1.6983653456
C        0.8960877748    1.8548833595   -2.0517192807
C        2.3910883234    1.9055172131   -1.8215995523
H       -1.9995927001   -1.1074522313   -0.0203274285
H       -1.7892018490   -0.5563013659    1.6492710132
H       -1.8009293304    0.6190321996    0.3292365726
H        1.8436868094    0.4221559490    1.2884858881
H        0.5139693769    1.5456207553    0.9545095150
H        0.4447135305    0.4825662174    2.3714877524
H        1.5495268700   -2.0820258604    0.8975230779
H        0.2083769612   -2.0517506859    2.0534846425
H       -0.0346109849   -2.7258565262    0.4335706816
H        1.5753286418   -0.5471121550   -1.0585288412
H        0.0513421935   -1.2723769271   -1.5510478842
H       -0.9794390812    0.9540551870   -1.9324744894
H        0.4527738005    2.7138477112   -2.5541387078
H        2.9070360525    1.0743834988   -2.3166818564
H        2.6406451029    1.8520676956   -0.7562807773
H        2.8165747559    2.8336978361   -2.2127655286
24   
torsion grid (-105,)
C       -1.4997489148   -0.5151929455    0.6913548470
C        0.0304262206   -0.6389756116    0.5785785464
C        0.6992153991    0.4357580526    1.4529924659
C        0.4623419719   -2.0337364046    1.0650432489
C        0.4839274990   -0.4799282856   -0.9011621375
C        0.0579292046    0.7994120353   -1.5718814358
C        0.8578077420    1.8199686695   -1.9159360919
C        2.3513398588    1.8967230394   -1.6898564142
H       -2.0050704073   -1.2295655060    0.0303123237
H       -1.8285585733   -0.7192905884    1.7167300029
H       -1.8429928384    0.4902739844    0.4283186036
H        1.7905326577    0.3319669072    1.4378625620
H        0.4506726197    1.4424180393    1.1023738214
H        0.3714912995    0.3484955244    2.4953385438
H        1.5472977032   -2.1648662991    0.9778054649
H        0.1911513137   -2.1843060339    2.1163586952
H       -0.0192704801   -2.8247792221    0.4783188589
H        1.5737784342   -0.5829034918   -0.9420510682
H        0.0724043025   -1.3247742486   -1.4710149602
H       -1.0030167416    0.8904343965   -1.8028450669
H        0.3988704767    2.6787099438   -2.4049799800
H        2.8988421243    1.2599935994   -2.3964372721
H        2.6300607595    1.5726457409   -0.6826114598
H        2.7158908170    2.9192980529   -1.8220443548
24   
torsion grid (-90,)
C       -1.5329766569   -0.6681145140    0.7875657883
C       -0.0045520873   -0.7875067565    0.6494666349
C        0.6755390327    0.2787920120    1.5254088122
C        0.4377820538   -2.1865803046    1.1135731398
C        0.4251639102   -0.6110328984   -0.8354815906
C       -0.0235261728    0.6707132892   -1.4876635853
C        0.7466448525    1.7196177686   -1.8146222989
C        2.2334086723    1.8533134865   -1.5887625349
H       -2.0472625534   -1.3786184163    0.1292315332
H       -1.8449071794   -0.8807333415    1.8164877883
H       -1.8821744537    0.3385874165    0.5374785977
H        1.7668329439    0.1789403578    1.4913135976
H        0.4185487155    1.2888549569    1.1913385940
H        0.3652451897    0.1776938248    2.5718333570
H        1.5216642271   -2.3140151431    1.0090239941
H        0.1823841456   -2.3498967908    2.1669370382
H       -0.0504537226   -2.9721063345    0.5249061218
H        1.5144342368   -0.7082007642   -0.8951883722
H        0.0103930379   -1.4527881908   -1.4072419311
H       -1.0858832288    0.7390576038   -1.7204587259
H        0.2598562458    2.5729092731   -2.2870992425
H        2.8019449600    1.4791978192   -2.4505007050
H        2.5704685161    1.2940036520   -0.7124224900
H        2.5135104980    2.9014473934   -1.4441292898
24   
torsion grid (-75,)
C       -1.5532692023   -0.7207012512    0.8249357803
C       -0.0286266150   -0.8544204705    0.6614012605
C        0.6759298874    0.2129190248    1.5163878298
C        0.4100730634   -2.2534207309    1.1292775549
C        0.3767529424   -0.6938101797   -0.8323425218
C       -0.0715017306    0.5881291852   -1.4849428690
C        0.6884298847    1.6479275594   -1.8015740193
C        2.1679921027    1.8125865255   -1.5685873555
H       -2.0849190315   -1.4350300883    0.1847955794
H       -1.8486969957   -0.9177294749    1.8618265120
H       -1.8983372869    0.2857695704    0.5681470224
H        1.7657479496    0.1083133107    1.4579529985
H        0.4164724676    1.2225416456    1.1832028269
H        0.3885453389    0.1182182888    2.5699137746
H        1.4912000326   -2.3901617177    1.0090819204
H        0.1697554672   -2.4067445240    2.1876829993
H       -0.0933049839   -3.0395359952    0.5543150905
H        1.4635290551   -0.8042511019   -0.9086619209
H       -0.0563763710   -1.5351872056   -1.3904971157
H       -1.1331686600    0.6500440936   -1.7231164252
H        0.1926873280    2.4980953128   -2.2714838963
H        2.7276288829    1.7116043905   -2.5078866421
H        2.5659985393    1.0757302211   -0.8676599516
H        2.3882745089    2.8085828077   -1.1682174634
24   
torsion grid (-60,)
C       -1.5694286985   -0.5852763277    0.8202991296
C       -0.0495851143   -0.7534932439    0.6449883935
C        0.6848321842    0.3274019772    1.4566403464
C        0.3685363684   -2.1447021024    1.1531531171
C        0.3409468959   -0.6493688474   -0.8578600107
C       -0.0853943641    0.6224829831   -1.5441641738
C        0.6844774195    1.6749224672   -1.8621565958
C        2.1576197658    1.8444489922   -1.6034500907
H       -2.1214233099   -1.3139763273    0.2144943819
H       -1.8563691447   -0.7360810426    1.8672886788
H       -1.8986193524    0.4167205864    0.5275430265
H        1.7718819699    0.2076496030    1.3796633122
H        0.4313029320    1.3307971931    1.1010697638
H        0.4166185429    0.2649342871    2.5175891522
H        1.4461549033   -2.3041043762    1.0293247122
H        0.1339828026   -2.2607788598    2.2175673313
H       -0.1529187230   -2.9393851200    0.6067945240
H        1.4241836649   -0.7870426120   -0.9406270805
H       -0.1174907561   -1.4976237532   -1.3840494806
H       -1.1420433854    0.6861170757   -1.8034363978
H        0.2017014404    2.5177751646   -2.3584829057
H        2.7041339787    1.9908346437   -2.5436921018
H        2.5973692576    0.9886338057   -1.0873679191
H        2.3409023014    2.7343367031   -0.9883953234
24   
torsion grid (-45,)
C       -1.7984743438    0.0695500587    0.7715928036
C       -0.2836831523   -0.1660152100    0.6348736001
C        0.4791065702    0.9377749169    1.3873721111
C        0.0735407645   -1.5356568777    1.2389955222
C        0.1329123038   -0.1748523576   -0.8646488025
C       -0.2260597968    1.0681737383   -1.6364932503
C        0.5908134191    2.0770648651   -1.9782254082
C        2.0587486916    2.2086205163   -1.6693837611
H       -2.3683106336   -0.6774693179    0.2059643749
H       -2.1072421166    0.0004625553    1.8209623790
H       -2.0844081968    1.0609601025    0.4062166798
H        1.5621619781    0.7785900995    1.3286468928
H        0.2612484100    1.9251958870    0.9690956512
H        0.1996258076    0.9487540751    2.4471938604
H        1.1461449186   -1.7422940816    1.1450637428
H       -0.1817894732   -1.5735761420    2.3042778181
H       -0.4690958678   -2.3444569263    0.7356850640
H        1.2109977163   -0.3611171141   -0.9170156646
H       -0.3530445410   -1.0354369778   -1.3437568008
H       -1.2696126709    1.1511275975   -1.9395526876
H        0.1581777831    2.9035582220   -2.5431156448
H        2.6142885570    2.5403198339   -2.5542011612
H        2.5022906411    1.2758771571   -1.3139614645
H        2.2238655053    2.9677860557   -0.8933986560
24   
torsion grid (-30,)
C       -1.8006477710    0.0225405335    0.6999141178
C       -0.2876924714   -0.2173992946    0.5514111846
C        0.4843093201    0.8980119577    1.2769612413
C        0.0743688818   -1.5769234459    1.1751544507
C        0.1131131072   -0.2523329801   -0.9519858083
C       -0.2428476738    0.9814790860   -1.7391007588
C        0.5864949578    1.9712802907   -2.1058135562
C        2.0628124248    2.0707372977   -1.8131441522
H       -2.3772858542   -0.7350876618    0.1557400734
H       -2.0979989912   -0.0249957309    1.7537691201
H       -2.0896962002    1.0066947092    0.3177332306
H        1.5664922455    0.7393365314    1.2036766890
H        0.2577534442    1.8790464848    0.8482659796
H        0.2208065980    0.9234155866    2.3406274055
H        1.1463644392   -1.7846525931    1.0769592431
H       -0.1733471803   -1.5974331770    2.2427106710
H       -0.4715184265   -2.3940026909    0.6890512094
H        1.1901091467   -0.4443014716   -1.0110473666
H       -0.3832408296   -1.1172974814   -1.4123175342
H       -1.2887151156    1.0741925933   -2.0308880759
H        0.1625780462    2.7933923258   -2.6826380926
H        2.5824977737    2.6148361422   -2.6084222111
H        2.5361074300    1.0919513144   -1.6977821064
H        2.2406310071    2.6284309096   -0.8841060880
24   
torsion grid (-15,)
C       -1.7187600720    0.1009821728    0.5919569665
C       -0.2041657009   -0.1395672084    0.4611867608
C        0.5598628442    0.9934284273    1.1677802861
C        0.1543248875   -1.4837682360    1.1192699175
C        0.2097520271   -0.2081243887   -1.0374315119
C       -0.1425646000    1.0054684595   -1.8562122001
C        0.7055408959    1.9554565963   -2.2796906770
C        2.1947776917    2.0035638254   -2.0249005531
H       -2.2896838618   -0.6658017217    0.0546458406
H       -2.0253321190    0.0694734660    1.6437507140
H       -2.0060755078    1.0786658414    0.1923624366
H        1.6422582565    0.8265627149    1.1202237066
H        0.3465098486    1.9623429356    0.7056420329
H        0.2767960280    1.0521490207    2.2250967338
H        1.2269093504   -1.6933611255    1.0323772640
H       -0.0997185538   -1.4788107127    2.1855333404
H       -0.3885472033   -2.3123608949    0.6495664466
H        1.2883295513   -0.3951589167   -1.0840281811
H       -0.2797114840   -1.0859386252   -1.4812019437
H       -1.1933251543    1.1153529198   -2.1230097322
H        0.2923151330    2.7713509852   -2.8719768947
H        2.6838358989    2.7157791544   -2.6956189833
H        2.6708067694    1.0272443704   -2.1617571311
H        2.4135102270    2.3278106519   -0.9999080875
24   
torsion grid (0,)
C       -1.7418721232   -0.0234406315    0.6664725739
C       -0.2190495823   -0.2181425366    0.5548576357
C        0.5009281981    0.9169554251    1.3032481631
C        0.1661127361   -1.5686501184    1.1843729624
C        0.2210814720   -0.2359704018   -0.9374964771
C       -0.1590945845    0.9835457356   -1.7347032268
C        0.6788068692    1.9373327873   -2.1684501535
C        2.1741216357    1.9760347402   -1.9383585076
H       -2.2820806968   -0.7852217359    0.0915851647
H       -2.0653058178   -0.1018226571    1.7107115382
H       -2.0499079888    0.9600476696    0.2978451081
H        1.5874661232    0.7723248944    1.2849707814
H        0.2814026343    1.8897853836    0.8521151721
H        0.1870509947    0.9509922868    2.3529281778
H        1.2443954909   -1.7495934089    1.1038971606
H       -0.0987351441   -1.5958467670    2.2476693194
H       -0.3511704673   -2.3987129157    0.6890585890
H        1.3057920250   -0.3859745546   -0.9739015384
H       -0.2316492122   -1.1186891629   -1.4102914358
H       -1.2154359809    1.0891073011   -1.9800193295
H        0.2544147687    2.7601519191   -2.7426007568
H        2.6195642470    2.8602098451   -2.4023716562
H        2.6738683530    1.0959926463   -2.3600279271
H        2.4199361017    2.0059276350   -0.8711733364
24   
torsion grid (15,)
C       -1.7153392197    0.0763847002    0.6035548326
C       -0.1917372594   -0.1272788931    0.5222451314
C        0.5204929789    1.0181356763    1.2623037922
C        0.1754416045   -1.4677522545    1.1832083556
C        0.2748498688   -0.1745517944   -0.9612116577
C       -0.0913109893    1.0279043646   -1.7907468930
C        0.7540073566    1.9624461415   -2.2509544933
C        2.2481777380    2.0039536267   -2.0206418826
H       -2.2491448599   -0.6925648584    0.0322180107
H       -2.0573169698    0.0171742597    1.6431281179
H       -2.0122940874    1.0549042239    0.2133152513
H        1.6061453672    0.8656004054    1.2711932551
H        0.3187738426    1.9829110251    0.7863021294
H        0.1845640356    1.0764379109    2.3040587188
H        1.2538643948   -1.6559635674    1.1239085903
H       -0.1069256079   -1.4736860139    2.2423185884
H       -0.3382683643   -2.3041931591    0.6949335005
H        1.3592425121   -0.3289854378   -0.9782350217
H       -0.1710697215   -1.0654880098   -1.4251403961
H       -1.1460671070    1.1344334210   -2.0425293908
H        0.3353640155    2.7724085994   -2.8475529378
H        2.6544283079    2.9884312529   -2.2699396283
H        2.7710710924    1.2735161246   -2.6514634763
H        2.5123037583    1.7847778601   -0.9820329589
24   
torsion grid (30,)
C       -1.5921951611    0.3825869257    0.4467612568
C       -0.0785580727    0.1116838680    0.3770805648
C        0.6828449295    1.2743327795    1.0368640080
C        0.2366473786   -1.1949058217    1.1267664221
C        0.3794272599   -0.0547589478   -1.1005360910
C        0.0516126021    1.1005589654   -2.0099918150
C        0.9143292049    1.9912091367   -2.5225897937
C        2.4049818570    2.0422729891   -2.2913625051
H       -2.1595179279   -0.4018240581   -0.0685417572
H       -1.9314134619    0.4099872133    1.4885780943
H       -1.8506890863    1.3428793884   -0.0103789750
H        1.7617680636    1.0799790701    1.0524327183
H        0.5170991462    2.2127235794    0.4985312641
H        0.3555115382    1.4147146393    2.0735118359
H        1.3063527383   -1.4303602602    1.0792860516
H       -0.0417340915   -1.1178951462    2.1841492293
H       -0.3122848789   -2.0408733175    0.6966910473
H        1.4564542074   -0.2532681042   -1.1091320016
H       -0.1018183767   -0.9575131260   -1.5017342333
H       -0.9988001381    1.2110554116   -2.2781824039
H        0.5088990605    2.7691645922   -3.1696872774
H        2.7694132763    3.0733897452   -2.3432718469
H        2.9436386204    1.4820753695   -3.0675696220
H        2.6947380818    1.6270168352   -1.3234124898
24   
torsion grid (45,)
C       -1.6225746161    0.5049202578    0.4278167972
C       -0.1175169722    0.1908486174    0.3549040372
C        0.6804937491    1.3500426019    0.9762242648
C        0.1685534477   -1.1024785780    1.1384936819
C        0.3235390463   -0.0292386892   -1.1210613454
C        0.0189702875    1.1102148714   -2.0586981094
C        0.8873116815    1.9968125759   -2.5694706311
C        2.3707444374    2.0717619407   -2.3184156697
H       -2.2154161984   -0.2801479284   -0.0568541743
H       -1.9517784148    0.5757554051    1.4708186801
H       -1.8585405884    1.4563836134   -0.0590580019
H        1.7546640604    1.1305220924    0.9819076424
H        0.5299629715    2.2791370592    0.4178741775
H        0.3705471858    1.5226208426    2.0133476621
H        1.2315202227   -1.3668672885    1.0917013594
H       -0.1011891272   -0.9893558535    2.1948661719
H       -0.4046871083   -1.9453791085    0.7349255800
H        1.3942104950   -0.2588249765   -1.1303388745
H       -0.1856895864   -0.9286621549   -1.4935026683
H       -1.0263678600    1.2164513871   -2.3479897645
H        0.4888390333    2.7633375206   -3.2350921507
H        2.6746037765    3.1055976806   -2.1170592304
H        2.9329279083    1.7511241562   -3.2056907844
H        2.6906816830    1.4540619197   -1.4770939783
24   
torsion grid (60,)
C       -1.6258277032    0.4479818278    0.4603550297
C       -0.1201406802    0.1380758517    0.3843904751
C        0.6765462601    1.3020454736    0.9983358982
C        0.1725542573   -1.1514059310    1.1718582013
C        0.3165190617   -0.0867321499   -1.0923472894
C        0.0121894116    1.0520215633   -2.0309283950
C        0.8716981114    1.9635981794   -2.5123693929
C        2.3452465757    2.0748451562   -2.2262501588
H       -2.2180384794   -0.3446143468   -0.0126973389
H       -1.9510561982    0.5299766953    1.5037978270
H       -1.8665225491    1.3928536170   -0.0370042101
H        1.7523891046    1.0913081881    0.9895490222
H        0.5116204955    2.2310877316    0.4441027199
H        0.3778340276    1.4698492500    2.0395204952
H        1.2370504055   -1.4099060935    1.1267922038
H       -0.0988252270   -1.0368954259    2.2276542788
H       -0.3955299126   -1.9986609780    0.7701333301
H        1.3870219156   -0.3173728030   -1.1013152934
H       -0.1947302588   -0.9863012153   -1.4610352360
H       -1.0280687647    1.1389447086   -2.3441108866
H        0.4720579776    2.7242425422   -3.1843093503
H        2.5746931813    3.0410491676   -1.7593221727
H        2.9266018573    2.0289592566   -3.1556964699
H        2.7080970668    1.2897958680   -1.5598581039
24   
torsion grid (75,)
C       -1.5102860613    0.7885984786    0.3438530010
C       -0.0241406379    0.4227313616    0.1817469741
C        0.8447547484    1.4644835390    0.9071652436
C        0.2264078636   -0.9664489360    0.7948470603
C        0.3607967467    0.3633713780   -1.3250755754
C        0.0954390572    1.6252081929   -2.1041509769
C        0.9892375918    2.5574267095   -2.4703510357
C        2.4685103110    2.5647061395   -2.1873267595
H       -2.1528415932    0.0872407324   -0.2019496354
H       -1.8031867706    0.7572246369    1.3995579626
H       -1.7175638091    1.7969659270   -0.0281537639
H        1.9089406987    1.2130807916    0.8291700871
H        0.7030326452    2.4629356968    0.4823927875
H        0.5886945173    1.5090822145    1.9720095429
H        1.2754096248   -1.2651008892    0.6834877384
H       -0.0105260534   -0.9718516379    1.8650289705
H       -0.3930115690   -1.7307237741    0.3109744230
H        1.4176962302    0.0844220914   -1.3951225271
H       -0.2067300773   -0.4566818064   -1.7851977915
H       -0.9424272571    1.7942881577   -2.3904550645
H        0.6184840701    3.4123037617   -3.0369641049
H        2.7099003517    3.2873917650   -1.3968338502
H        3.0356065884    2.8597523982   -3.0773714964
H        2.8370486504    1.5907248244   -1.8564908726
24   
torsion grid (90,)
C       -1.4662896657    0.5132765745    0.3597218001
C        0.0253611884    0.1798830035    0.1794037252
C        0.8796813401    1.2291249222    0.9113729520
C        0.3096311699   -1.2119917622    0.7712734236
C        0.3976246058    0.1488055950   -1.3314030828
C        0.1082029343    1.4178305292   -2.0891801602
C        0.9932283715    2.3589084560   -2.4540486470
C        2.4782460119    2.3559469493   -2.1879352198
H       -2.0995993081   -0.1946109705   -0.1884084358
H       -1.7483735846    0.4634890261    1.4176611999
H       -1.6976798480    1.5214952635    0.0017838075
H        1.9479575836    1.0022786663    0.8164573747
H        0.7101680531    2.2307478402    0.5044532959
H        0.6356746971    1.2511719808    1.9797530721
H        1.3641077646   -1.4861966869    0.6493963716
H        0.0796578197   -1.2373531370    1.8426877795
H       -0.2962363181   -1.9826767104    0.2804858839
H        1.4589995244   -0.1100933590   -1.4134938575
H       -0.1609252754   -0.6736288111   -1.7984011619
H       -0.9345168973    1.5833271383   -2.3591957824
H        0.6126288874    3.2177699708   -3.0070345325
H        2.7107335865    2.8528752699   -1.2371824439
H        3.0203987323    2.8865760768   -2.9767961231
H        2.8847216819    1.3425024205   -2.1216756922
24   
torsion grid (105,)
C       -1.4456250642    0.4070657719    0.3872386828
C        0.0555943457    0.1114925217    0.2201245471
C        0.8759875929    1.1699016593    0.9773585513
C        0.3652148596   -1.2815408055    0.7963949379
C        0.4468594323    0.1105974730   -1.2861317036
C        0.1352984255    1.3819139416   -2.0304243122
C        1.0171646050    2.3181603573   -2.4136224821
C        2.5104742875    2.2892382236   -2.1800568966
H       -2.0554208286   -0.3036743382   -0.1833840935
H       -1.7396626473    0.3288715458    1.4401757589
H       -1.6963699239    1.4168993809    0.0474543273
H        1.9495986346    0.9606585465    0.9046671274
H        0.6984782984    2.1714028130    0.5731485828
H        0.6088640561    1.1808135334    2.0403791652
H        1.4267067885   -1.5303974781    0.6814104767
H        0.1255196817   -1.3262814387    1.8650506538
H       -0.2184329766   -2.0589076214    0.2894923923
H        1.5159060390   -0.1179394442   -1.3596872615
H       -0.0848513694   -0.7198516559   -1.7706162971
H       -0.9133374793    1.5502489650   -2.2740655996
H        0.6307889388    3.1828704848   -2.9523723943
H        2.7588758932    2.5268792567   -1.1385132004
H        3.0227876223    3.0165146163   -2.8160082476
H        2.9386027693    1.3032532350   -2.3899209008
24   
torsion grid (120,)
C       -1.4278384088    0.4666801499    0.3361747658
C        0.0772666707    0.1775011746    0.1934037467
C        0.8809639689    1.2477582601    0.9520353132
C        0.3851646904   -1.2081970436    0.7879982968
C        0.4906465972    0.1639469466   -1.3066389923
C        0.1764676690    1.4222270733   -2.0716965243
C        1.0666298278    2.3299148769   -2.5002291536
C        2.5648673785    2.2683517525   -2.2955651619
H       -2.0253169613   -0.2464542051   -0.2444194553
H       -1.7383412587    0.3866450780    1.3842070741
H       -1.6780658264    1.4755583503   -0.0067109073
H        1.9555136685    1.0344368011    0.9113344550
H        0.7169637550    2.2421976557    0.5250705030
H        0.5873395129    1.2789502816    2.0076470422
H        1.4481332883   -1.4558485006    0.6846649274
H        0.1365959128   -1.2415144127    1.8550433325
H       -0.1924173055   -1.9925733169    0.2849320338
H        1.5627347278   -0.0542166202   -1.3654954777
H       -0.0255936284   -0.6776013931   -1.7893174918
H       -0.8747623322    1.6001103179   -2.2963151099
H        0.6865654803    3.1903872037   -3.0497086700
H        2.8296882380    2.2583158408   -1.2325953831
H        3.0589468914    3.1312853645   -2.7501724184
H        2.9995901837    1.3672232044   -2.7440419110
24   
torsion grid (135,)
C       -1.4451135126    0.3835647329    0.3970237350
C        0.0670911409    0.1210312863    0.2796081622
C        0.8379823661    1.1917899662    1.0708945146
C        0.3856490586   -1.2689404540    0.8584630001
C        0.5105441224    0.1382032561   -1.2115745376
C        0.1853000422    1.4002349951   -1.9662454883
C        1.0641547216    2.3219766505   -2.3878054723
C        2.5619263205    2.2854885208   -2.1803663555
H       -2.0192464334   -0.3283769904   -0.2080917305
H       -1.7749167915    0.2794865269    1.4370067242
H       -1.7052285070    1.3943913391    0.0675648162
H        1.9161349952    0.9936698834    1.0532875314
H        0.6709587419    2.1896161544    0.6531430882
H        0.5195659171    1.2049193867    2.1196755613
H        1.4540498166   -1.4987080212    0.7709531617
H        0.1182425679   -1.3228700217    1.9200962467
H       -0.1703383406   -2.0540699407    0.3327313809
H        1.5869353851   -0.0606648602   -1.2548953272
H        0.0201009784   -0.7053016825   -1.7173574285
H       -0.8673515309    1.5662076411   -2.1934920170
H        0.6730981932    3.1815479721   -2.9313288644
H        2.8283288030    2.0089302329   -1.1559323202
H        3.0061733727    3.2646336632   -2.3817643574
H        3.0459350698    1.5660573176   -2.8529338253
24   
torsion grid (150,)
C       -1.5564208947    0.0586953760    0.5891589646
C       -0.0445366579   -0.1797607499    0.4257293190
C        0.7324059998    0.8668510564    1.2429090286
C        0.3038492190   -1.5883563683    0.9386123488
C        0.3632555386   -0.0952164118   -1.0733798611
C       -0.0022476760    1.1902981001   -1.7684056677
C        0.8379993799    2.1612885467   -2.1575347195
C        2.3358912501    2.1877514280   -1.9714577368
H       -2.1366083659   -0.6360339932   -0.0300517945
H       -1.8597889462   -0.0905072022    1.6317071002
H       -1.8360206933    1.0783868116    0.3062923562
H        1.8122987125    0.6846153467    1.1908643432
H        0.5430354093    1.8791592962    0.8724295063
H        0.4399021186    0.8310248343    2.2986792139
H        1.3725266154   -1.8007753496    0.8171149281
H        0.0621067731   -1.6896527039    2.0029364706
H       -0.2550779550   -2.3580363447    0.3935043336
H        1.4405082455   -0.2770718804   -1.1502970297
H       -0.1263787124   -0.9249254280   -1.6019580455
H       -1.0621511467    1.3329747877   -1.9776155403
H        0.4066684344    3.0305377644   -2.6541673420
H        2.6551251434    1.6392309656   -1.0819816822
H        2.6906970032    3.2182522395   -1.8648088423
H        2.8557296529    1.7596637776   -2.8384756362
24   
torsion grid (165,)
C       -1.5212050087    0.1887299013    0.5517137890
C       -0.0177380675   -0.0917701223    0.3783866182
C        0.7945207644    0.9651371621    1.1463721968
C        0.3047278825   -1.4884594785    0.9385906774
C        0.3714704881   -0.0722509801   -1.1281212774
C        0.0265827076    1.1964494842   -1.8640796084
C        0.8713034542    2.1603147272   -2.2620101858
C        2.3628330401    2.2101552792   -2.0552399598
H       -2.1260136393   -0.5189461331   -0.0280243138
H       -1.8126650780    0.0929715848    1.6039135319
H       -1.7811900795    1.2011941054    0.2271768823
H        1.8695913383    0.7602612525    1.0806603251
H        0.6181239565    1.9684395482    0.7464564977
H        0.5208148734    0.9692690510    2.2077575131
H        1.3672466629   -1.7289058392    0.8152150860
H        0.0713346315   -1.5460784458    2.0080262835
H       -0.2763098577   -2.2645826919    0.4267582611
H        1.4425102681   -0.2848971914   -1.2104302227
H       -0.1453203206   -0.9079300634   -1.6196434053
H       -1.0294398048    1.3360481339   -2.0943939523
H        0.4446821703    3.0168918357   -2.7851245073
H        2.7105279730    1.4852467734   -1.3164495600
H        2.6660516533    3.2046692974   -1.7072373237
H        2.8994726416    2.0273877868   -2.9952929541
24   
torsion grid (180,)
C       -1.6100347023    0.0993380526    0.6270433302
C       -0.1060243782   -0.1757038431    0.4502485267
C        0.7043341612    0.8768339189    1.2261140769
C        0.2211439097   -1.5763091996    0.9977628701
C        0.2810067913   -0.1423034389   -1.0567382336
C       -0.0626064158    1.1349651646   -1.7784504854
C        0.7742664034    2.1244150257   -2.1279096738
C        2.2563282715    2.2028379225   -1.8769269419
H       -2.2134320010   -0.6082212131    0.0456899455
H       -1.8998392389   -0.0008262754    1.6793011158
H       -1.8731353951    1.1120910840    0.3058143570
H        1.7804439644    0.6826971065    1.1471447450
H        0.5155951941    1.8841799667    0.8425380516
H        0.4399691120    0.8631327956    2.2897752699
H        1.2848892868   -1.8112330179    0.8742205602
H       -0.0140948751   -1.6450904896    2.0661250435
H       -0.3557009172   -2.3499063774    0.4774344079
H        1.3519654932   -0.3553001592   -1.1399452168
H       -0.2370220325   -0.9726067714   -1.5555294039
H       -1.1137431488    1.2615119751   -2.0370526224
H        0.3468444814    2.9828622285   -2.6476996173
H        2.6444836358    1.3256966795   -1.3553469205
H        2.4966516535    3.0836465553   -1.2681023074
H        2.8065856524    2.3116906411   -2.8199063059
