25   
torsion grid (-165,)
C       -0.6502528967   -4.9188845144   -4.5443251206
C       -0.9757169177   -3.9091993898   -3.5887987344
C        0.6550808847   -5.3307127697   -4.4601540731
C       -0.5290895145   -1.3603618971   -1.5478479757
C        0.1329466849   -2.5791238785   -1.7136964771
C        0.0884623109   -3.5581870798   -2.7841841336
C       -0.0542810432   -0.8491887527   -0.3039754490
C       -1.8911275990    0.6514307112   -2.3179165776
C       -0.4137190423    0.4234353152    0.4042451966
C       -1.5710796234   -0.8178084203   -2.4933579309
N        0.8432828502   -1.6779896590    0.2441593858
N        0.9517562844   -2.7058571650   -0.6256462950
O       -2.9389653235    1.0988086122   -1.8971588285
O       -0.8651940981    1.4506490128   -2.7157113616
S        1.5167269924   -4.4735249249   -3.2248947893
H       -1.3580327619   -5.3285775075   -5.2573648410
H       -1.9664464619   -3.4840274128   -3.4760130112
H        1.1636359867   -6.0801160435   -5.0530340654
H       -1.4962910842    0.5298031069    0.5196142223
H        0.0447524137    0.4235896482    1.3954407052
H       -0.0492227300    1.2989877557   -0.1425392115
H       -2.5211333978   -1.3444658214   -2.3669599682
H       -1.2373785721   -0.9717438436   -3.5258985799
H        1.5218319138   -3.5042353936   -0.3788533306
H       -1.1643116873    2.3693863528   -2.5729060962
25   
torsion grid (-150,)
C       -0.6854060531   -4.9447687103   -4.5304976438
C       -1.0043930850   -3.9840696401   -3.5234613198
C        0.6506969611   -5.2522446429   -4.5674436481
C       -0.5487504930   -1.4158241594   -1.5016171597
C        0.1500506025   -2.6037624129   -1.7173368547
C        0.0951507261   -3.5649861825   -2.8040476028
C       -0.0565041798   -0.9182027310   -0.2597987618
C       -1.7313530123    0.6552107177   -2.3942020807
C       -0.4462834471    0.3320468940    0.4699421469
C       -1.6263738119   -0.8565733256   -2.3900837647
N        0.8843278080   -1.7254900112    0.2436412560
N        1.0050838048   -2.7273579011   -0.6563331715
O       -2.7278890875    1.2916698478   -2.1153218131
O       -0.5733997903    1.2501848468   -2.7857181180
S        1.5465801744   -4.3543122479   -3.3866702063
H       -1.4179937586   -5.3963736848   -5.1912523399
H       -2.0114568059   -3.6428755690   -3.3102939548
H        1.1624459442   -5.9480514953   -5.2199712922
H       -1.5331023618    0.4243765647    0.5578410690
H       -0.0136681338    0.3193100248    1.4726767729
H       -0.0802416723    1.2240859407   -0.0494397222
H       -2.6152633404   -1.2276554363   -2.1060484296
H       -1.4384286033   -1.1725035814   -3.4227955924
H        1.6038915772   -3.5142991353   -0.4433058129
H       -0.7459246516    2.2113491856   -2.7773410597
25   
torsion grid (-135,)
C       -0.7068121312   -4.9175464213   -4.5226037457
C       -1.0318317252   -4.0091057594   -3.4698610202
C        0.6445331699   -5.1069730591   -4.6620106742
C       -0.6130120439   -1.4187425398   -1.4480632678
C        0.1295072664   -2.5671908396   -1.7166909186
C        0.0775668526   -3.5103141383   -2.8204652218
C       -0.0948890017   -0.9228625510   -0.2168668263
C       -1.6321443363    0.6656034478   -2.4781269544
C       -0.5150272863    0.3045548900    0.5329352717
C       -1.7144794592   -0.8375467130   -2.2873893925
N        0.8951507132   -1.6979909902    0.2381936328
N        1.0257291330   -2.6759776771   -0.6878095449
O       -2.5374341776    1.4495275488   -2.2723980041
O       -0.4178763927    1.0607399311   -2.9430890155
S        1.5442345175   -4.1588897717   -3.5244229949
H       -1.4444366417   -5.4182801578   -5.1409930319
H       -2.0455442815   -3.7610739653   -3.1740793674
H        1.1644899868   -5.7434747413   -5.3665789029
H       -1.6013587784    0.3418076868    0.6627714898
H       -0.0425260790    0.3162382344    1.5175171856
H       -0.2191992240    1.2155929143    0.0009854110
H       -2.7030531370   -1.0397056167   -1.8657390666
H       -1.6826394775   -1.2873571333   -3.2860741778
H        1.6608145850   -3.4432743917   -0.5113306228
H       -0.4719051275    2.0293604420   -3.0548401894
25   
torsion grid (-120,)
C       -0.7396023828   -4.8240445239   -4.6400079137
C       -1.0697503321   -4.0318791106   -3.4986274033
C        0.6087591077   -4.8572133776   -4.8905143806
C       -0.7091112873   -1.5119993679   -1.3491252691
C        0.0752468377   -2.6000975121   -1.7263520159
C        0.0316181753   -3.4638966101   -2.8952891638
C       -0.1708105537   -1.0805051726   -0.1018765499
C       -1.5791439718    0.5752254742   -2.4409059138
C       -0.6213649289    0.0705017881    0.7454623152
C       -1.8367934925   -0.8863332016   -2.1204080769
N        0.8666701877   -1.8404887435    0.2644657156
N        1.0093996299   -2.7406564915   -0.7363038787
O       -2.2205919551    1.5163345824   -2.0169772358
O       -0.5207084490    0.7315679778   -3.2786350780
S        1.4955273821   -3.9004704035   -3.7505883673
H       -1.4696050584   -5.3564744762   -5.2407206894
H       -2.0762750659   -3.9130407198   -3.1115072986
H        1.1323744789   -5.3835072739   -5.6784291858
H       -1.7054073797    0.0519810513    0.8964555798
H       -0.1274625220    0.0295477918    1.7187497629
H       -0.3821047292    1.0311131250    0.2767171058
H       -2.7782614607   -0.9255348705   -1.5662888655
H       -1.9712831907   -1.4172068992   -3.0671724693
H        1.6792941276   -3.4919041581   -0.6349718897
H       -0.4222761861    1.6927439142   -3.4196922419
25   
torsion grid (-105,)
C       -0.6904036077   -4.7491801990   -4.5939295837
C       -1.0352098244   -4.0002768352   -3.4279877286
C        0.6521092596   -4.7069808276   -4.8734077916
C       -0.7290703174   -1.4846621642   -1.2448277325
C        0.0751369937   -2.5493434865   -1.6473854516
C        0.0482074507   -3.3903636289   -2.8345680020
C       -0.1956168941   -1.0674571492    0.0100366116
C       -1.4039880960    0.5093528580   -2.5597324326
C       -0.6759306197    0.0474175428    0.8883785895
C       -1.8483990531   -0.8364152418   -2.0144801957
N        0.8550490105   -1.8176647221    0.3591383402
N        1.0116016686   -2.6943779402   -0.6607726572
O       -1.6299039636    1.5900558725   -2.0509454166
O       -0.6762393546    0.3760512141   -3.6994546318
S        1.5129873336   -3.7314381422   -3.7300244462
H       -1.4052415741   -5.3053517572   -5.1913696430
H       -2.0382243439   -3.9399302557   -3.0187283756
H        1.1843576244   -5.1885823121   -5.6838200401
H       -1.7297259835   -0.0900061495    1.1560487085
H       -0.0845575091    0.0757071773    1.8060580333
H       -0.5989415755    1.0149942171    0.3834849510
H       -2.7141108505   -0.6565080240   -1.3726625225
H       -2.1495842170   -1.4705840004   -2.8503649109
H        1.6980752098   -3.4329895019   -0.5789727406
H       -0.3932914171    1.2759629734   -3.9520094805
25   
torsion grid (-90,)
C       -0.5690641809   -4.5888232444   -4.6122191132
C       -0.9540135610   -3.9095752349   -3.4167746784
C        0.7754619426   -4.4922798425   -4.8675820793
C       -0.7596594974   -1.4932776752   -1.1132522113
C        0.0851406442   -2.5114435566   -1.5525731959
C        0.1007926299   -3.2988679066   -2.7760289512
C       -0.2404854062   -1.0980677428    0.1536782283
C       -1.3201401210    0.3844752831   -2.6154978629
C       -0.7498538576   -0.0119892312    1.0512941118
C       -1.8715571866   -0.8197070378   -1.8730524440
N        0.8318204136   -1.8255744110    0.4835759216
N        1.0199552066   -2.6617478764   -0.5652652974
O       -1.2867167449    1.5223479800   -2.1891226757
O       -0.8137272811    0.0413577441   -3.8288014624
S        1.5888333299   -3.5507874903   -3.6624873954
H       -1.2577221621   -5.1347799197   -5.2485913686
H       -1.9657276084   -3.8952461891   -3.0253644698
H        1.3342520979   -4.9165857162   -5.6920126561
H       -1.7836847921   -0.2060507825    1.3598308642
H       -0.1285692775    0.0507162589    1.9472028078
H       -0.7378966500    0.9560921097    0.5407690729
H       -2.6407408254   -0.4586260110   -1.1875652192
H       -2.3273624303   -1.5034592083   -2.5909660801
H        1.7317530714   -3.3783705019   -0.5072016776
H       -0.4300896702    0.8559820663   -4.2071309441
25   
torsion grid (-75,)
C       -0.3011638056   -4.3943222325   -4.6254731252
C       -0.7863423440   -3.6939060207   -3.4801046826
C        1.0678788748   -4.4777249525   -4.6565315126
C       -0.7360034079   -1.4541437665   -1.0306870837
C        0.1100248941   -2.4949970994   -1.4109563747
C        0.2190606055   -3.2466898523   -2.6499194175
C       -0.3101280792   -1.0895987614    0.2758626893
C       -1.2119721714    0.1734235428   -2.8994142684
C       -0.8481442287    0.0061531539    1.1450880956
C       -1.7824755024   -0.7812964192   -1.8604812887
N        0.7102972198   -1.8517302534    0.6852076842
N        0.9563825166   -2.6836903789   -0.3535656574
O       -0.0771948405    0.5952850420   -2.9495806428
O       -2.1708342627    0.5407638576   -3.7968059409
S        1.7871048527   -3.6781201990   -3.2988236383
H       -0.9410519274   -4.8263398079   -5.3878385526
H       -1.8389775508   -3.5537804501   -3.2603944099
H        1.6954515311   -4.9532594812   -5.3994069545
H       -1.9221882186   -0.1143494721    1.3263686662
H       -0.3341687819   -0.0000834683    2.1086375811
H       -0.6974055516    0.9873546772    0.6811682394
H       -2.4465549932   -0.1842076350   -1.2249632375
H       -2.4353494486   -1.4870360615   -2.3794927967
H        1.6489188220   -3.4137605227   -0.2494614831
H       -1.7414960577    1.1663049829   -4.4118276262
25   
torsion grid (-60,)
C       -0.4411424183   -4.1251084561   -4.7548989105
C       -0.8758795705   -3.4224872125   -3.5912419825
C        0.9011367481   -4.4068247368   -4.7363588759
C       -0.7347455020   -1.4265976834   -0.9917299049
C        0.0778154517   -2.4751768590   -1.4245199467
C        0.1421664753   -3.1739092206   -2.6944793265
C       -0.2875604062   -1.1294533517    0.3239677142
C       -1.2993409734   -0.0625740559   -3.0403445483
C       -0.7943582936   -0.0674050482    1.2524110356
C       -1.8071626917   -0.7303682269   -1.7702669814
N        0.7188294190   -1.9327885776    0.6883342465
N        0.9292575882   -2.7296263717   -0.3853832508
O       -0.1925664798    0.3978471726   -3.2158992333
O       -2.2778130968    0.0005061115   -3.9879745509
S        1.6614978754   -3.7941468522   -3.3052714567
H       -1.0987191661   -4.4157396582   -5.5675368139
H       -1.9055804295   -3.1338353221   -3.4143436741
H        1.4899217035   -4.9279815707   -5.4802840272
H       -1.8585373686   -0.2023265068    1.4762899660
H       -0.2387861140   -0.1039132809    2.1918880361
H       -0.6699082576    0.9312004250    0.8187769740
H       -2.2406728859    0.0721381706   -1.1622000024
H       -2.6405554703   -1.3885193121   -2.0305442005
H        1.6143196010   -3.4712537826   -0.3223653484
H       -1.8856370157    0.4685011669   -4.7504922959
25   
torsion grid (-45,)
C       -0.4531516667   -4.0852050574   -4.7458253603
C       -0.8887048164   -3.4319978992   -3.5539203989
C        0.9064494946   -4.2656686578   -4.7862012423
C       -0.7327155897   -1.3819089026   -0.9894245952
C        0.0754894350   -2.4329347665   -1.4215259411
C        0.1462675616   -3.1185677231   -2.6988981907
C       -0.3247581031   -1.1291799597    0.3494713298
C       -1.2525442774   -0.2143687906   -3.1718579342
C       -0.8438011926   -0.0831130332    1.2891278252
C       -1.7452805670   -0.6187221744   -1.7898476199
N        0.6527687917   -1.9619081243    0.7257997811
N        0.8866327327   -2.7319044690   -0.3624590643
O       -0.1365948822    0.1677752614   -3.4492783437
O       -2.2512495062   -0.2871297818   -4.0966894571
S        1.6794657539   -3.6154341732   -3.3790393610
H       -1.1209606135   -4.4169169923   -5.5340456506
H       -1.9273100004   -3.2208357820   -3.3244614477
H        1.4992740128   -4.7358980436   -5.5603691473
H       -1.9169351266   -0.2049987901    1.4736405719
H       -0.3198411339   -0.1533484635    2.2447316446
H       -0.6893910141    0.9249529320    0.8874416814
H       -1.9899646651    0.3153718580   -1.2712208233
H       -2.6891834784   -1.1608380166   -1.9016127495
H        1.5513982228   -3.4916353888   -0.2978694835
H       -1.8591160108    0.0141351032   -4.9392156935
25   
torsion grid (-30,)
C       -0.4671060871   -4.0783574929   -4.7389395151
C       -0.9098081880   -3.4754700174   -3.5230339292
C        0.9009189521   -4.1354486183   -4.8343621553
C       -0.7373764754   -1.3393377794   -0.9831666366
C        0.0435149701   -2.4078490556   -1.4204332042
C        0.1275601977   -3.0757942432   -2.7092439363
C       -0.3778655561   -1.1560605737    0.3823499956
C       -1.2600578114   -0.2959416148   -3.2339117657
C       -0.8913232874   -0.1204534504    1.3360286618
C       -1.6679832536   -0.4679035414   -1.7794702970
N        0.5460049925   -2.0440577360    0.7658479186
N        0.7947923995   -2.7818550583   -0.3402522329
O       -0.1593760862    0.0261307801   -3.6270698277
O       -2.3060966468   -0.5043628532   -4.0813509433
S        1.6695955377   -3.4317824817   -3.4517467228
H       -1.1338469610   -4.4650013847   -5.5027414413
H       -1.9516372141   -3.3540876874   -3.2469950506
H        1.5006468105   -4.5469662724   -5.6363027539
H       -1.9769111528   -0.1949372405    1.4642684691
H       -0.4182679468   -0.2492974266    2.3118684943
H       -0.6708759468    0.8927652958    0.9798614947
H       -1.6734322925    0.5384041296   -1.3456875476
H       -2.7000988668   -0.8301319239   -1.7447838699
H        1.4183315061   -3.5760837623   -0.2794555165
H       -1.9536241279   -0.3598238928   -4.9810599314
25   
torsion grid (-15,)
C       -1.0392009275   -4.3751023464   -4.6698081453
C       -0.3896143179   -3.2641894149   -4.0503802637
C       -1.5855746225   -5.2450402339   -3.7585193744
C       -0.2476603832   -0.9920955887   -1.4475452846
C        0.0634005491   -2.3234062103   -1.7168970314
C       -0.4565208743   -3.2967884253   -2.6764365697
C        0.6270925835   -0.6168736603   -0.3860356418
C       -1.9688458209   -0.6115011758   -3.2781050288
C        0.7099107486    0.7122555606    0.3000439852
C       -1.3200293200   -0.0929099222   -2.0125945758
N        1.4169785955   -1.6326262975   -0.0244460515
N        1.0534101627   -2.6538553569   -0.8295313925
O       -1.6236759742   -0.3344827826   -4.4098053890
O       -3.0091163641   -1.4411891258   -3.0109757207
S       -1.3280929748   -4.7134075707   -2.1319478794
H       -1.0874034231   -4.5274069196   -5.7430471711
H        0.0962339655   -2.4604621179   -4.5917880613
H       -2.1155069671   -6.1697712395   -3.9500871784
H       -0.2380824795    0.9717455171    0.7855762127
H        1.4916291579    0.6890943092    1.0622573498
H        0.9424447466    1.5136330728   -0.4106183450
H       -0.8882333261    0.8810656572   -2.2574525868
H       -2.1001067952    0.0638736618   -1.2593696008
H        1.5615113560   -3.5278228572   -0.7921219201
H       -3.3147011667   -1.7877110203   -3.8714732282
25   
torsion grid (0,)
C       -1.0005616163   -4.3509320858   -4.6979173858
C       -0.4010451140   -3.2238665346   -4.0575800762
C       -1.4745054429   -5.2791474063   -3.8045918096
C       -0.2054120269   -0.9847151076   -1.4853067707
C        0.0537736358   -2.3367244098   -1.7041812262
C       -0.4353004581   -3.3011315309   -2.6840875577
C        0.5994700701   -0.6340827374   -0.3614838952
C       -2.0243935262   -0.6406779136   -3.2454612462
C        0.6917767865    0.7024002612    0.3086236991
C       -1.1746642757   -0.0372964718   -2.1477846706
N        1.3024066955   -1.6805613803    0.0814224495
N        0.9491168527   -2.6994187606   -0.7320226004
O       -1.8961642865   -0.4218484997   -4.4340089794
O       -2.9859098694   -1.4605445243   -2.7510431749
S       -1.2144096732   -4.7814103988   -2.1664622406
H       -1.0655600629   -4.4713877577   -5.7742315169
H        0.0333126932   -2.3832684104   -4.5863978171
H       -1.9549847455   -6.2266649008   -4.0140037526
H       -0.2784447210    1.0140262877    0.7134185339
H        1.4083116752    0.6573242291    1.1314849184
H        1.0166189461    1.4791361743   -0.3929693752
H       -0.6388147513    0.8040086993   -2.5955887565
H       -1.8501656879    0.3684402012   -1.3855298615
H        1.4132848342   -3.5939461193   -0.6440086957
H       -3.4409987358   -1.8487805146   -3.5228905053
25   
torsion grid (15,)
C       -0.9632398191   -4.3214294177   -4.7284355379
C       -0.4063684947   -3.1870212524   -4.0635085861
C       -1.3730913505   -5.2995286205   -3.8576806904
C       -0.1686755313   -0.9877212145   -1.5226745432
C        0.0526538564   -2.3535042175   -1.6952073109
C       -0.4078971054   -3.3091933249   -2.6923657722
C        0.5667467905   -0.6420640524   -0.3515590330
C       -2.0840225136   -0.6709838952   -3.1942961616
C        0.6626372976    0.7026281572    0.3020114644
C       -1.0482381667   -0.0349626094   -2.2894975951
N        1.1964657095   -1.7038083052    0.1607557854
N        0.8618433962   -2.7279997754   -0.6553198163
O       -2.1670046015   -0.4945285836   -4.3939634916
O       -2.9580855357   -1.4482711224   -2.5070303545
S       -1.1073403185   -4.8402867293   -2.2083091408
H       -1.0460340007   -4.4097702619   -5.8065642477
H       -0.0182786146   -2.3140509561   -4.5757822044
H       -1.8125519779   -6.2618668891   -4.0881001250
H       -0.3215497794    1.0583323746    0.6294303472
H        1.3136397934    0.6444824314    1.1768831631
H        1.0694937606    1.4533672587   -0.3846900295
H       -0.4562622591    0.6327428606   -2.9217375829
H       -1.5903137757    0.5949464496   -1.5739200186
H        1.2871483114   -3.6353634088   -0.5168094081
H       -3.5603530606   -1.8358378665   -3.1706149016
25   
torsion grid (30,)
C       -0.9355917997   -4.2790007485   -4.7817624704
C       -0.4203801888   -3.1417251554   -4.0893725293
C       -1.2710354837   -5.3079591014   -3.9388031746
C       -0.1376891061   -0.9966120021   -1.5655414373
C        0.0590541206   -2.3700746390   -1.7076428705
C       -0.3765177998   -3.3133774415   -2.7234547164
C        0.5234039397   -0.6541639574   -0.3515817692
C       -2.1303516186   -0.6555958809   -3.1413675741
C        0.6126506106    0.6945362126    0.2955762183
C       -0.9314736474   -0.0564011398   -2.4295100734
N        1.0902167820   -1.7251439612    0.2141504294
N        0.7868703466   -2.7512368896   -0.6131747095
O       -2.3863620905   -0.4985157237   -4.3192281484
O       -2.9343209083   -1.3599407546   -2.3065253011
S       -0.9893039002   -4.8932494498   -2.2797495773
H       -1.0441764171   -4.3321959025   -5.8598581464
H       -0.0876692587   -2.2346311210   -4.5811613443
H       -1.6687543975   -6.2822986995   -4.1929647022
H       -0.3810791017    1.0822793036    0.5489082395
H        1.1965196423    0.6252105490    1.2158353106
H        1.0918879807    1.4255539828   -0.3649899706
H       -0.3179499644    0.4080281246   -3.2068209110
H       -1.3159910450    0.7583009408   -1.8042454018
H        1.1725162190   -3.6681786057   -0.4292114608
H       -3.6630045158   -1.7041966656   -2.8576460241
25   
torsion grid (45,)
C       -0.9134885320   -4.2880788806   -4.7964939115
C       -0.4635655469   -3.1321485924   -4.0905602370
C       -1.1173481887   -5.3680696597   -3.9760858118
C       -0.1096178041   -1.0204974107   -1.5940349444
C        0.0762206495   -2.3989227542   -1.7101836309
C       -0.3332459018   -3.3416977262   -2.7343358646
C        0.4821892555   -0.6718278020   -0.3483122538
C       -2.1664810706   -0.5927241966   -3.0549990020
C        0.5530068125    0.6818200919    0.2914937559
C       -0.8256266506   -0.0986613627   -2.5379445919
N        1.0008942273   -1.7436845616    0.2613329936
N        0.7340904697   -2.7763919703   -0.5718371758
O       -2.5524279999   -0.4714008365   -4.2013866160
O       -2.9283059553   -1.1538454126   -2.0837495099
S       -0.7884217241   -4.9821885423   -2.3186092348
H       -1.0735996555   -4.3162251247   -5.8690897682
H       -0.2345310852   -2.1875842321   -4.5702659840
H       -1.4476212245   -6.3636493572   -4.2436448032
H       -0.4479097967    1.0884939995    0.4762844019
H        1.0742700300    0.6102439687    1.2484439246
H        1.0891039719    1.3979389003   -0.3411257223
H       -0.2295720636    0.1463135635   -3.4213820732
H       -1.0252133089    0.8502590915   -2.0265146376
H        1.0976390923   -3.6946164998   -0.3526074664
H       -3.7602879633   -1.4261240522   -2.5162519368
25   
torsion grid (60,)
C       -0.8923600482   -4.3874750492   -4.7729170286
C       -0.5773696464   -3.1914345735   -4.0613391337
C       -0.8434774894   -5.5083052060   -3.9849939841
C       -0.1161431625   -1.0666077777   -1.6127873535
C        0.0664293400   -2.4495798930   -1.7027471291
C       -0.2907302467   -3.4106234462   -2.7294855859
C        0.4022274510   -0.7056058617   -0.3393755581
C       -2.1889565927   -0.4571638954   -2.9662325770
C        0.4404239892    0.6560960368    0.2856617192
C       -0.7427238486   -0.1463093767   -2.6187451143
N        0.8797404020   -1.7711252867    0.3125704224
N        0.6592718112   -2.8124365231   -0.5238866006
O       -2.6425381347   -0.4868648570   -4.0938372616
O       -2.9523671169   -0.6700326294   -1.8655454140
S       -0.4328447785   -5.1169492574   -2.3473946317
H       -1.1441708975   -4.4119947690   -5.8278603520
H       -0.5672086004   -2.2124770725   -4.5241496128
H       -1.0362093926   -6.5369025761   -4.2614042546
H       -0.5687737675    1.0644136960    0.4098772307
H        0.9097627276    0.5961202237    1.2698692769
H        1.0121627210    1.3636735340   -0.3252646178
H       -0.1937196471   -0.1183079902   -3.5629747309
H       -0.7336879448    0.8741895060   -2.2197556570
H        0.9986113156   -3.7293278733   -0.2644234745
H       -3.8553392808   -0.8496185862   -2.1909419029
25   
torsion grid (75,)
C       -0.9462980700   -4.6165811913   -4.6933313177
C       -1.0440915787   -3.4611236541   -3.8597331879
C       -0.0598557566   -5.5493749749   -4.2201123794
C       -0.0910146318   -1.1584481418   -1.6494802982
C       -0.0291831789   -2.5562521726   -1.6869245220
C       -0.2231423908   -3.5244631643   -2.7530820591
C        0.2944337637   -0.8033668325   -0.3255247931
C       -2.1057257257   -0.2076533414   -2.7908867071
C        0.3753400395    0.5700299219    0.2679517207
C       -0.5898341823   -0.2110427353   -2.7057997111
N        0.6008617196   -1.8842308030    0.3978203251
N        0.4057939606   -2.9271093861   -0.4429946904
O       -2.7763203653   -0.7335251075   -3.6591642679
O       -2.6666421996    0.4615094759   -1.7500036780
S        0.6951060733   -5.0217985472   -2.7529002199
H       -1.5205906076   -4.7513890490   -5.6040424068
H       -1.7149960014   -2.6328376059   -4.0547947357
H        0.2010181133   -6.5094482604   -4.6468756395
H       -0.5989599818    1.0686789921    0.2372874419
H        0.7028317478    0.5039171203    1.3076606776
H        1.0878717465    1.2003312458   -0.2766729532
H       -0.2156823663   -0.4880057900   -3.6949298750
H       -0.2536067305    0.8036723350   -2.4774355500
H        0.5342844395   -3.8692296231   -0.0976925305
H       -3.6341746237    0.3835467001   -1.8588990454
25   
torsion grid (90,)
C       -0.9666035770   -4.6452155993   -4.6641421928
C       -1.0942559936   -3.5342256346   -3.7757141265
C        0.0461138987   -5.5010267919   -4.3131885273
C       -0.1307090212   -1.2139345015   -1.6202610929
C        0.0160930304   -2.6020455607   -1.6742491863
C       -0.1672192350   -3.5549423094   -2.7545612574
C        0.2365377241   -0.8494625485   -0.2935278403
C       -2.0829362500   -0.1250485746   -2.7148794624
C        0.2667502287    0.5231529104    0.3060700977
C       -0.5748392312   -0.2969561394   -2.7262641172
N        0.5933305177   -1.9220110113    0.4202608573
N        0.4619747245   -2.9659469533   -0.4330956674
O       -2.8768034523   -0.7638664932   -3.3797919760
O       -2.4813633120    0.8291311384   -1.8327411122
S        0.8830549454   -4.9527646646   -2.8983534185
H       -1.6099696458   -4.8073860593   -5.5227356297
H       -1.8564516934   -2.7673311168   -3.8626376957
H        0.3538465289   -6.4166253173   -4.8020697826
H       -0.7219508409    0.9907860943    0.2700313584
H        0.5955857894    0.4654876598    1.3458571204
H        0.9579923959    1.1781959972   -0.2372732256
H       -0.3005762439   -0.7095717490   -3.6996620367
H       -0.1067201949    0.6843364025   -2.6106141286
H        0.6170617301   -3.9057296563   -0.0923866164
H       -3.4581051924    0.8348446439   -1.8553431040
25   
torsion grid (105,)
C       -0.9796819228   -4.6626745036   -4.6586497719
C       -1.1173690612   -3.5906028055   -3.7252979502
C        0.1158671684   -5.4506293858   -4.4117467102
C       -0.1886176601   -1.2620604406   -1.6126591218
C        0.0610621780   -2.6324638128   -1.6859952628
C       -0.1150017451   -3.5730541481   -2.7774635108
C        0.1634797725   -0.8890514419   -0.2830880134
C       -2.0576817767   -0.0093069116   -2.6793998965
C        0.1311292713    0.4768579840    0.3315065881
C       -0.5848373780   -0.3655456142   -2.7538680545
N        0.5867042405   -1.9469592101    0.4169521663
N        0.5281928018   -2.9864267667   -0.4507890883
O       -2.9611931349   -0.6556073870   -3.1758507952
O       -2.2855320485    1.1184400105   -1.9557466637
S        1.0168287485   -4.8834969551   -3.0438936596
H       -1.6732375136   -4.8483079541   -5.4721993987
H       -1.9357107354   -2.8773023583   -3.7248392446
H        0.4494864045   -6.3273494185   -4.9521902068
H       -0.8809142122    0.8918974441    0.3271428308
H        0.4931056495    0.4274892675    1.3606372379
H        0.7665576014    1.1750294228   -0.2259454358
H       -0.4164176992   -0.8724209602   -3.7053658474
H        0.0047264401    0.5558440440   -2.7312061480
H        0.7198259993   -3.9216343892   -0.1161575481
H       -3.2553159735    1.2353414512   -1.9294468633
25   
torsion grid (120,)
C       -0.9468738749   -4.7878510577   -4.5865751943
C       -1.1147377471   -3.7335572575   -3.6381834704
C        0.2318742608   -5.4704421097   -4.4222414114
C       -0.2224525702   -1.3105180937   -1.6158196123
C        0.1054549761   -2.6633739115   -1.6849497345
C       -0.0537001362   -3.6222681124   -2.7641355089
C        0.1317929529   -0.9103602674   -0.2936542646
C       -2.0175531388    0.1449608576   -2.5769364668
C        0.0275014888    0.4514230175    0.3224721931
C       -0.6302395778   -0.4374014347   -2.7717706957
N        0.6222153918   -1.9396572122    0.4053297625
N        0.6100236759   -2.9852705676   -0.4558501783
O       -3.0579698615   -0.4500273095   -2.7816986796
O       -1.9897722868    1.4267917195   -2.1242764967
S        1.1710811415   -4.8225494221   -3.1173902265
H       -1.6765310134   -5.0375798674   -5.3498095940
H       -1.9937972372   -3.1001218631   -3.5710825135
H        0.6048317960   -6.3137141735   -4.9895208045
H       -1.0168604592    0.7503133852    0.4576255136
H        0.5205037208    0.4537600634    1.2969600459
H        0.4955533931    1.2112435561   -0.3122478310
H       -0.6475101849   -1.0246023828   -3.6911013718
H        0.0840343496    0.3828437198   -2.8942952297
H        0.8485220679   -3.9082785184   -0.1174836271
H       -2.9221320999    1.6958169983   -2.0095502361
25   
torsion grid (135,)
C       -0.8332443762   -4.8042952938   -4.4620784607
C       -1.0863444267   -3.7886863577   -3.4904646093
C        0.4337351031   -5.3225038608   -4.3706138650
C       -0.3069054862   -1.2443290874   -1.4963292207
C        0.0976374379   -2.5742506108   -1.5881616029
C       -0.0057665940   -3.5387970052   -2.6722088137
C        0.0711304001   -0.8347309832   -0.1833099099
C       -2.0339454640    0.4369627105   -2.3049443021
C       -0.0995668602    0.5117008063    0.4502324811
C       -0.7974905414   -0.3832017040   -2.6188262554
N        0.6461457511   -1.8373259525    0.4886113139
N        0.6662378938   -2.8748606780   -0.3806901595
O       -2.7930529600    0.2829728649   -1.3708183709
O       -2.2252366542    1.4055788304   -3.2449489621
S        1.3468124260   -4.5613464979   -3.1098444633
H       -1.5645348932   -5.1461370987   -5.1871014303
H       -2.0399723919   -3.2857676028   -3.3676958926
H        0.8835271163   -6.1054319219   -4.9678692102
H       -1.1585667144    0.7349017077    0.6087921762
H        0.4182319359    0.5367803611    1.4115457980
H        0.3127744669    1.3046125995   -0.1850870543
H       -1.0249604541   -0.9852140938   -3.5043329049
H       -0.0202842727    0.3212319554   -2.9403894021
H        0.9712414841   -3.7847907100   -0.0610761304
H       -3.0459107490    1.8705921792   -2.9919649295
25   
torsion grid (150,)
C       -0.8210427200   -4.9308543435   -4.4782328141
C       -1.1019621460   -3.9351949031   -3.4937258478
C        0.4833180921   -5.3550602478   -4.4468241181
C       -0.3839685481   -1.3260555689   -1.5392785184
C        0.0791249706   -2.6365259800   -1.6436283470
C       -0.0061342504   -3.6064291251   -2.7256765669
C        0.0167587933   -0.8982003252   -0.2380733061
C       -1.9610016886    0.5315356891   -2.2654833003
C       -0.1806941048    0.4387186926    0.4100793917
C       -0.9175257173   -0.4915021132   -2.6684909863
N        0.6533600188   -1.8759909953    0.4163698820
N        0.6923076218   -2.9115224589   -0.4526184265
O       -2.8250103931    0.3857484242   -1.4252933746
O       -1.8522965474    1.6705060535   -3.0045498374
S        1.3955146428   -4.5286571476   -3.2275328251
H       -1.5583374753   -5.3256340100   -5.1694939191
H       -2.0829180775   -3.5021427978   -3.3273139191
H        0.9608026271   -6.1034721744   -5.0664272797
H       -1.2375908511    0.6178804825    0.6270600669
H        0.3858222504    0.4798249425    1.3429659151
H        0.1646370543    1.2515770869   -0.2391812759
H       -1.3839949918   -1.1253159652   -3.4293725974
H       -0.1045552161    0.0380073530   -3.1767209255
H        1.0509325698   -3.8060492383   -0.1451760590
H       -2.5836256572    2.2506299462   -2.7164651291
25   
torsion grid (165,)
C       -0.7781571741   -4.9775338133   -4.5186718191
C       -1.0679808032   -3.9716582538   -3.5474661396
C        0.5391091136   -5.3607364283   -4.5098392774
C       -0.3849244292   -1.3124931343   -1.6311474876
C        0.1209245597   -2.6081295006   -1.7433643873
C        0.0331886650   -3.5942152383   -2.8102832681
C        0.0710677642   -0.8488601103   -0.3610343462
C       -1.8452829101    0.6593371778   -2.2701277161
C       -0.1411613899    0.4804415830    0.3012349771
C       -1.0859066848   -0.5642695258   -2.7404786189
N        0.7879975645   -1.7909441197    0.2651597759
N        0.8185170151   -2.8358079794   -0.5897478337
O       -2.8711557591    0.6445376274   -1.6206497494
O       -1.2557510269    1.8181949725   -2.6714705729
S        1.4519115412   -4.4821816480   -3.3284072507
H       -1.5182199027   -5.4073038861   -5.1856625627
H       -2.0590255043   -3.5670465050   -3.3716061171
H        1.0263086683   -6.1042381910   -5.1277461058
H       -1.2011344832    0.6606732251    0.5031728705
H        0.4033005731    0.4993112109    1.2477621327
H        0.2246339816    1.3019986645   -0.3234242565
H       -1.8241210213   -1.2097372842   -3.2210815344
H       -0.3645155927   -0.2622249575   -3.5054843868
H        1.2403942298   -3.7071040592   -0.2957847979
H       -1.8147368366    2.5414236123   -2.3259236154
25   
torsion grid (180,)
C       -0.6586661895   -4.9208805619   -4.5898550901
C       -0.9569993561   -3.8575678702   -3.6851980976
C        0.5897564792   -5.4530618245   -4.3944903921
C       -0.4516423846   -1.3305925492   -1.6163258914
C        0.1354170139   -2.5929882902   -1.7475889022
C        0.0696061732   -3.5867415572   -2.8041037197
C        0.0381154418   -0.8235800130   -0.3760497245
C       -1.9262204507    0.6433147517   -2.2616207755
C       -0.2384945094    0.4833445690    0.3078077355
C       -1.4200015863   -0.7388469738   -2.6139625653
N        0.8687077802   -1.6991505391    0.2053535385
N        0.9223816255   -2.7498043954   -0.6402207915
O       -2.9711234694    0.8854934542   -1.6923817698
O       -1.0771443729    1.6224436996   -2.6743758868
S        1.4326102202   -4.6463150813   -3.1134838065
H       -1.3458760319   -5.2798779818   -5.3488538276
H       -1.9067671793   -3.3365609844   -3.6680606214
H        1.0682887036   -6.2626578579   -4.9304046619
H       -1.3082169089    0.6292285845    0.4830329263
H        0.2766027677    0.4946872197    1.2706908959
H        0.1229573087    1.3284697868   -0.2861818913
H       -2.3149251675   -1.3624475403   -2.6793733020
H       -0.9571967636   -0.7048625831   -3.6062119351
H        1.4385425493   -3.5762239140   -0.3682204702
H       -1.4814083689    2.4683704247   -2.3998619465
