
  -OEChem-12122420533D

 57 58  0     0  0  0  0  0  0999 V2000
   -2.2334    1.5070   -1.3105 C   0  0  0  0  0  0  0  0  0  0  0  0
   -2.0287    0.0766   -0.8959 C   0  0  0  0  0  0  0  0  0  0  0  0
   -0.9279   -0.4088   -0.2227 C   0  0  0  0  0  0  0  0  0  0  0  0
   -1.0374   -2.1450    0.1042 S   0  0  0  0  0  0  0  0  0  0  0  0
   -2.5827   -2.2036   -0.6932 C   0  0  0  0  0  0  0  0  0  0  0  0
   -2.9815   -0.9641   -1.1616 C   0  0  0  0  0  0  0  0  0  0  0  0
   -4.2681   -0.8345   -1.8368 C   0  0  0  0  0  0  0  0  0  0  0  0
   -4.7140    0.2273   -2.2597 O   0  0  0  0  0  0  0  0  0  0  0  0
   -4.9822   -2.0434   -1.9793 N   0  0  0  0  0  0  0  0  0  0  0  0
   -4.6159   -3.2671   -1.4124 C   0  0  0  0  0  0  0  0  0  0  0  0
   -5.3346   -4.2524   -1.4197 O   0  0  0  0  0  0  0  0  0  0  0  0
   -3.3346   -3.3317   -0.8247 N   0  0  0  0  0  0  0  0  0  0  0  0
   -2.9190   -4.6119   -0.2293 C   0  0  0  0  0  0  0  0  0  0  0  0
   -3.3743   -4.7532    1.2278 C   0  0  0  0  0  0  0  0  0  0  0  0
   -2.6698   -5.9080    1.9169 C   0  0  0  0  0  0  0  0  0  0  0  0
   -1.2820   -5.6502    1.9412 F   0  0  0  0  0  0  0  0  0  0  0  0
   -6.2953   -1.9872   -2.6612 C   0  0  0  0  0  0  0  0  0  0  0  0
   -6.2459   -2.2645   -4.1890 C   0  0  0  0  0  0  0  0  0  0  0  0
   -5.8511   -3.7135   -4.4835 C   0  0  0  0  0  0  0  0  0  0  0  0
   -5.3094   -1.3047   -4.9341 C   0  0  0  0  0  0  0  0  0  0  0  0
   -7.6066   -2.1688   -4.6444 O   0  0  0  0  0  0  0  0  0  0  0  0
   -8.1554   -0.8689   -4.8419 C   0  0  0  0  0  0  0  0  0  0  0  0
    0.2839    0.3273    0.2079 C   0  0  0  0  0  0  0  0  0  0  0  0
    1.3712    0.2780   -0.8725 N   0  3  0  0  0  0  0  0  0  0  0  0
    2.6510    1.0139   -0.5825 C   0  0  0  0  0  0  0  0  0  0  0  0
    3.7541    0.3935   -1.4528 C   0  0  0  0  0  0  0  0  0  0  0  0
    3.6644   -1.0703   -1.3228 N   0  0  0  0  0  0  0  0  0  0  0  0
   -3.1513    1.9034   -0.8698 H   0  0  0  0  0  0  0  0  0  0  0  0
   -1.3993    2.1488   -1.0117 H   0  0  0  0  0  0  0  0  0  0  0  0
   -2.3663    1.5792   -2.3933 H   0  0  0  0  0  0  0  0  0  0  0  0
   -3.3420   -5.4061   -0.8440 H   0  0  0  0  0  0  0  0  0  0  0  0
   -1.8299   -4.6716   -0.3014 H   0  0  0  0  0  0  0  0  0  0  0  0
   -4.4561   -4.9174    1.2601 H   0  0  0  0  0  0  0  0  0  0  0  0
   -3.1607   -3.8324    1.7814 H   0  0  0  0  0  0  0  0  0  0  0  0
   -2.8109   -6.8560    1.3884 H   0  0  0  0  0  0  0  0  0  0  0  0
   -2.9986   -6.0174    2.9532 H   0  0  0  0  0  0  0  0  0  0  0  0
   -6.6905   -0.9897   -2.4781 H   0  0  0  0  0  0  0  0  0  0  0  0
   -6.9439   -2.7262   -2.1946 H   0  0  0  0  0  0  0  0  0  0  0  0
   -5.9011   -3.8867   -5.5620 H   0  0  0  0  0  0  0  0  0  0  0  0
   -4.8326   -3.9260   -4.1465 H   0  0  0  0  0  0  0  0  0  0  0  0
   -6.5304   -4.4075   -3.9847 H   0  0  0  0  0  0  0  0  0  0  0  0
   -5.4013   -1.4699   -6.0120 H   0  0  0  0  0  0  0  0  0  0  0  0
   -4.2695   -1.5016   -4.6554 H   0  0  0  0  0  0  0  0  0  0  0  0
   -5.5165   -0.2569   -4.7116 H   0  0  0  0  0  0  0  0  0  0  0  0
   -9.2161   -1.0223   -5.0504 H   0  0  0  0  0  0  0  0  0  0  0  0
   -7.6981   -0.3575   -5.6975 H   0  0  0  0  0  0  0  0  0  0  0  0
   -8.0638   -0.2269   -3.9562 H   0  0  0  0  0  0  0  0  0  0  0  0
    0.0807    1.3836    0.3896 H   0  0  0  0  0  0  0  0  0  0  0  0
    0.7443   -0.0929    1.1050 H   0  0  0  0  0  0  0  0  0  0  0  0
    1.6825   -0.7050   -1.0371 H   0  0  0  0  0  0  0  0  0  0  0  0
    0.9573    0.5994   -1.7542 H   0  0  0  0  0  0  0  0  0  0  0  0
    2.5078    2.0794   -0.7685 H   0  0  0  0  0  0  0  0  0  0  0  0
    2.8617    0.8660    0.4795 H   0  0  0  0  0  0  0  0  0  0  0  0
    3.5922    0.6623   -2.5012 H   0  0  0  0  0  0  0  0  0  0  0  0
    4.7189    0.8194   -1.1551 H   0  0  0  0  0  0  0  0  0  0  0  0
    4.2065   -1.4054   -0.5276 H   0  0  0  0  0  0  0  0  0  0  0  0
    4.0351   -1.5387   -2.1468 H   0  0  0  0  0  0  0  0  0  0  0  0
  1  2  1  0  0  0  0
  1 28  1  0  0  0  0
  1 29  1  0  0  0  0
  1 30  1  0  0  0  0
  2  3  2  0  0  0  0
  2  6  1  0  0  0  0
  3  4  1  0  0  0  0
  3 23  1  0  0  0  0
  4  5  1  0  0  0  0
  5  6  2  0  0  0  0
  5 12  1  0  0  0  0
  6  7  1  0  0  0  0
  7  8  2  0  0  0  0
  7  9  1  0  0  0  0
  9 10  1  0  0  0  0
  9 17  1  0  0  0  0
 10 11  2  0  0  0  0
 10 12  1  0  0  0  0
 12 13  1  0  0  0  0
 13 14  1  0  0  0  0
 13 31  1  0  0  0  0
 13 32  1  0  0  0  0
 14 15  1  0  0  0  0
 14 33  1  0  0  0  0
 14 34  1  0  0  0  0
 15 16  1  0  0  0  0
 15 35  1  0  0  0  0
 15 36  1  0  0  0  0
 17 18  1  0  0  0  0
 17 37  1  0  0  0  0
 17 38  1  0  0  0  0
 18 19  1  0  0  0  0
 18 20  1  0  0  0  0
 18 21  1  0  0  0  0
 19 39  1  0  0  0  0
 19 40  1  0  0  0  0
 19 41  1  0  0  0  0
 20 42  1  0  0  0  0
 20 43  1  0  0  0  0
 20 44  1  0  0  0  0
 21 22  1  0  0  0  0
 22 45  1  0  0  0  0
 22 46  1  0  0  0  0
 22 47  1  0  0  0  0
 23 24  1  0  0  0  0
 23 48  1  0  0  0  0
 23 49  1  0  0  0  0
 24 25  1  0  0  0  0
 24 50  1  0  0  0  0
 24 51  1  0  0  0  0
 25 26  1  0  0  0  0
 25 52  1  0  0  0  0
 25 53  1  0  0  0  0
 26 27  1  0  0  0  0
 26 54  1  0  0  0  0
 26 55  1  0  0  0  0
 27 56  1  0  0  0  0
 27 57  1  0  0  0  0
M  CHG  1  24   1
M  END
$$$$
