57
1 1 C18FH30N4O3S
C                    -2.141545399347     1.445991000065    -1.310472664075
C                    -2.011243454169     0.016431095269    -0.865297176121
C                    -0.944502632395    -0.505102658603    -0.161375442659
S                    -1.138544311271    -2.229330411029     0.193382456366
C                    -2.666717214792    -2.232621104806    -0.641239078867
C                    -3.000988277402    -0.984154330591    -1.134567385780
C                    -4.275110933360    -0.801269765815    -1.827261963245
O                    -4.689218300273     0.283519554914    -2.210244883495
N                    -5.014332861437    -1.994626596532    -2.002659088540
C                    -4.717301173915    -3.220710201340    -1.414110925387
O                    -5.471335645262    -4.181119085754    -1.442862202765
N                    -3.465397028584    -3.327773953740    -0.769832665380
C                    -3.123045297673    -4.613342818599    -0.141733294784
C                    -3.621987576820    -4.708339970610     1.304819908442
C                    -2.983467881429    -5.877419283341     2.033291622652
F                    -1.587490096891    -5.675571192837     2.088865130678
C                    -6.256651337312    -1.911142821886    -2.794496625124
C                    -6.062339227715    -2.261466570435    -4.287356014638
C                    -7.368050132993    -1.885292229390    -5.003874938602
C                    -5.731679529686    -3.745399899303    -4.502584938301
O                    -4.963564113148    -1.427562710626    -4.699671666892
C                    -4.622186078887    -1.439163280521    -6.079415744552
C                     0.294087895867     0.180166620662     0.261066163691
N                     1.372919596680     0.102591400621    -0.849765565691
C                     2.705850271695     0.743063373620    -0.532074561734
C                     3.691633044608     0.609944253017    -1.710147145908
N                     4.992751384920     1.200306525609    -1.473452233363
H                    -3.040963784426     1.895977227458    -0.883473444913
H                    -1.278175449585     2.052660873840    -1.019817625442
H                    -2.267725831944     1.501117348056    -2.395146237873
H                    -3.564324538493    -5.399344504235    -0.754040191753
H                    -2.036126102171    -4.722803913100    -0.183003296267
H                    -4.710184359569    -4.827797222621     1.311101797569
H                    -3.385621251572    -3.786687014377     1.847628385385
H                    -3.149918980221    -6.829057468247     1.518785918941
H                    -3.342645674896    -5.953313423803     3.062502058915
H                    -6.599474729164    -0.880680892104    -2.715065517103
H                    -6.989466262896    -2.579860924989    -2.345181706649
H                    -7.348235822604    -2.182393614842    -6.055523218862
H                    -8.218052441984    -2.395759750055    -4.540113064226
H                    -7.538913469034    -0.805999049006    -4.949316704681
H                    -5.724296158196    -3.990800073303    -5.568197480178
H                    -6.471867867645    -4.383812605646    -4.015149067255
H                    -4.749039370891    -3.991111557593    -4.091393491280
H                    -3.779973433065    -0.751541607468    -6.186672921806
H                    -5.442862006000    -1.081599731551    -6.712828303057
H                    -4.310240510660    -2.433025684548    -6.425150283118
H                     0.144863536738     1.244755919025     0.444958583507
H                     0.758461118091    -0.263774640825     1.144177550848
H                     1.506935746740    -0.888430433057    -1.084154440371
H                     0.971124733514     0.525184436321    -1.695101484203
H                     2.503593820429     1.790508886138    -0.295358587935
H                     3.086116385562     0.249343031063     0.365498026775
H                     3.831594198998    -0.451917888256    -1.947268427116
H                     3.256346053061     1.077801292241    -2.601774222076
H                     4.954429773643     2.204454748167    -1.320820332838
H                     5.496151373514     0.763771353190    -0.705909921035
