
  -OEChem-12122420533D

 57 58  0     0  0  0  0  0  0999 V2000
   -1.5921    1.0817   -1.4445 C   0  0  0  0  0  0  0  0  0  0  0  0
   -1.5964   -0.3720   -1.0626 C   0  0  0  0  0  0  0  0  0  0  0  0
   -0.5596   -1.0343   -0.4374 C   0  0  0  0  0  0  0  0  0  0  0  0
   -0.9168   -2.7445   -0.1475 S   0  0  0  0  0  0  0  0  0  0  0  0
   -2.4813   -2.5467   -0.8838 C   0  0  0  0  0  0  0  0  0  0  0  0
   -2.7025   -1.2495   -1.3126 C   0  0  0  0  0  0  0  0  0  0  0  0
   -3.9701   -0.9126   -1.9539 C   0  0  0  0  0  0  0  0  0  0  0  0
   -4.2295    0.1945   -2.4098 O   0  0  0  0  0  0  0  0  0  0  0  0
   -4.9056   -1.9699   -1.9932 N   0  0  0  0  0  0  0  0  0  0  0  0
   -4.6454   -3.2905   -1.6238 C   0  0  0  0  0  0  0  0  0  0  0  0
   -5.4504   -4.1970   -1.7641 O   0  0  0  0  0  0  0  0  0  0  0  0
   -3.3800   -3.5542   -1.0567 N   0  0  0  0  0  0  0  0  0  0  0  0
   -3.1130   -4.9217   -0.5829 C   0  0  0  0  0  0  0  0  0  0  0  0
   -3.6057   -5.1408    0.8531 C   0  0  0  0  0  0  0  0  0  0  0  0
   -2.9780   -6.3754    1.4746 C   0  0  0  0  0  0  0  0  0  0  0  0
   -1.5838   -6.1759    1.5728 F   0  0  0  0  0  0  0  0  0  0  0  0
   -6.2388   -1.6898   -2.5745 C   0  0  0  0  0  0  0  0  0  0  0  0
   -7.3219   -1.2580   -1.5471 C   0  0  0  0  0  0  0  0  0  0  0  0
   -6.9938    0.1017   -0.9252 C   0  0  0  0  0  0  0  0  0  0  0  0
   -7.5425   -2.2985   -0.4414 C   0  0  0  0  0  0  0  0  0  0  0  0
   -8.5103   -1.0159   -2.3187 O   0  0  0  0  0  0  0  0  0  0  0  0
   -9.2801   -2.1425   -2.7317 C   0  0  0  0  0  0  0  0  0  0  0  0
    0.7332   -0.4817    0.0195 C   0  0  0  0  0  0  0  0  0  0  0  0
    0.6183    0.0812    1.4579 N   0  3  0  0  0  0  0  0  0  0  0  0
    1.8847    0.6618    2.0489 C   0  0  0  0  0  0  0  0  0  0  0  0
    1.6469    1.2036    3.4729 C   0  0  0  0  0  0  0  0  0  0  0  0
    2.8204    1.7737    4.1010 N   0  0  0  0  0  0  0  0  0  0  0  0
   -2.4231    1.6088   -0.9678 H   0  0  0  0  0  0  0  0  0  0  0  0
   -0.6546    1.5787   -1.1767 H   0  0  0  0  0  0  0  0  0  0  0  0
   -1.7471    1.1929   -2.5203 H   0  0  0  0  0  0  0  0  0  0  0  0
   -3.6079   -5.6065   -1.2710 H   0  0  0  0  0  0  0  0  0  0  0  0
   -2.0360   -5.0921   -0.6537 H   0  0  0  0  0  0  0  0  0  0  0  0
   -4.6957   -5.2425    0.8578 H   0  0  0  0  0  0  0  0  0  0  0  0
   -3.3517   -4.2740    1.4736 H   0  0  0  0  0  0  0  0  0  0  0  0
   -3.1327   -7.2732    0.8682 H   0  0  0  0  0  0  0  0  0  0  0  0
   -3.3534   -6.5512    2.4857 H   0  0  0  0  0  0  0  0  0  0  0  0
   -6.5531   -2.5958   -3.0890 H   0  0  0  0  0  0  0  0  0  0  0  0
   -6.1108   -0.8872   -3.2987 H   0  0  0  0  0  0  0  0  0  0  0  0
   -7.8148    0.4027   -0.2686 H   0  0  0  0  0  0  0  0  0  0  0  0
   -6.0751    0.0572   -0.3334 H   0  0  0  0  0  0  0  0  0  0  0  0
   -6.8674    0.8595   -1.7007 H   0  0  0  0  0  0  0  0  0  0  0  0
   -8.3898   -1.9944    0.1805 H   0  0  0  0  0  0  0  0  0  0  0  0
   -6.6610   -2.3554    0.2051 H   0  0  0  0  0  0  0  0  0  0  0  0
   -7.7267   -3.2995   -0.8343 H   0  0  0  0  0  0  0  0  0  0  0  0
  -10.0401   -1.7504   -3.4103 H   0  0  0  0  0  0  0  0  0  0  0  0
   -9.7793   -2.6286   -1.8851 H   0  0  0  0  0  0  0  0  0  0  0  0
   -8.6857   -2.8920   -3.2699 H   0  0  0  0  0  0  0  0  0  0  0  0
    1.5324   -1.2245    0.0634 H   0  0  0  0  0  0  0  0  0  0  0  0
    1.0718    0.3554   -0.5921 H   0  0  0  0  0  0  0  0  0  0  0  0
   -0.1235    0.7913    1.4504 H   0  0  0  0  0  0  0  0  0  0  0  0
    0.2634   -0.6708    2.0610 H   0  0  0  0  0  0  0  0  0  0  0  0
    2.6295   -0.1377    2.0439 H   0  0  0  0  0  0  0  0  0  0  0  0
    2.2151    1.4517    1.3699 H   0  0  0  0  0  0  0  0  0  0  0  0
    0.8634    1.9708    3.4426 H   0  0  0  0  0  0  0  0  0  0  0  0
    1.2719    0.3939    4.1109 H   0  0  0  0  0  0  0  0  0  0  0  0
    3.5689    1.0999    4.2380 H   0  0  0  0  0  0  0  0  0  0  0  0
    3.1846    2.5847    3.6085 H   0  0  0  0  0  0  0  0  0  0  0  0
  1  2  1  0  0  0  0
  1 28  1  0  0  0  0
  1 29  1  0  0  0  0
  1 30  1  0  0  0  0
  2  3  2  0  0  0  0
  2  6  1  0  0  0  0
  3  4  1  0  0  0  0
  3 23  1  0  0  0  0
  4  5  1  0  0  0  0
  5  6  2  0  0  0  0
  5 12  1  0  0  0  0
  6  7  1  0  0  0  0
  7  8  2  0  0  0  0
  7  9  1  0  0  0  0
  9 10  1  0  0  0  0
  9 17  1  0  0  0  0
 10 11  2  0  0  0  0
 10 12  1  0  0  0  0
 12 13  1  0  0  0  0
 13 14  1  0  0  0  0
 13 31  1  0  0  0  0
 13 32  1  0  0  0  0
 14 15  1  0  0  0  0
 14 33  1  0  0  0  0
 14 34  1  0  0  0  0
 15 16  1  0  0  0  0
 15 35  1  0  0  0  0
 15 36  1  0  0  0  0
 17 18  1  0  0  0  0
 17 37  1  0  0  0  0
 17 38  1  0  0  0  0
 18 19  1  0  0  0  0
 18 20  1  0  0  0  0
 18 21  1  0  0  0  0
 19 39  1  0  0  0  0
 19 40  1  0  0  0  0
 19 41  1  0  0  0  0
 20 42  1  0  0  0  0
 20 43  1  0  0  0  0
 20 44  1  0  0  0  0
 21 22  1  0  0  0  0
 22 45  1  0  0  0  0
 22 46  1  0  0  0  0
 22 47  1  0  0  0  0
 23 24  1  0  0  0  0
 23 48  1  0  0  0  0
 23 49  1  0  0  0  0
 24 25  1  0  0  0  0
 24 50  1  0  0  0  0
 24 51  1  0  0  0  0
 25 26  1  0  0  0  0
 25 52  1  0  0  0  0
 25 53  1  0  0  0  0
 26 27  1  0  0  0  0
 26 54  1  0  0  0  0
 26 55  1  0  0  0  0
 27 56  1  0  0  0  0
 27 57  1  0  0  0  0
M  CHG  1  24   1
M  END
$$$$
