57
1 1 C18FH30N4O3S
C                    -2.103015678548     1.402120494766    -1.239726190181
C                    -1.953651066292    -0.030418915855    -0.809221447171
C                    -0.872090340393    -0.542847170381    -0.122218980247
S                    -1.047376592479    -2.270964512892     0.227207818221
C                    -2.597140058489    -2.283692029158    -0.567780931610
C                    -2.938389724942    -1.038348046082    -1.068932197522
C                    -4.208622055258    -0.870722951772    -1.768359004504
O                    -4.607724856368     0.203876611965    -2.205117235700
N                    -4.950076492028    -2.057604918310    -1.928797052069
C                    -4.637559618792    -3.290231910454    -1.347977982462
O                    -5.360869415691    -4.266721093273    -1.420153552330
N                    -3.404497637689    -3.373144676431    -0.657761557749
C                    -3.026147224701    -4.685227367460    -0.102078183395
C                    -2.299999344586    -5.556380968939    -1.132018947710
C                    -1.825314622861    -6.867678281611    -0.524943708316
F                    -2.915286398269    -7.560373001955     0.016541153545
C                    -6.225593159511    -1.976449761520    -2.677837715121
C                    -6.104252682227    -2.255822906066    -4.201597862800
C                    -5.692583732150    -3.704005784597    -4.477346349832
C                    -5.136565134616    -1.294455411843    -4.904345595452
O                    -7.441733402819    -2.163875889163    -4.719611344654
C                    -7.986269643356    -0.865710749278    -4.941077256757
C                     0.350972249928     0.167800775852     0.307118503672
N                     1.403300321816     0.202192087442    -0.829241358782
C                     2.704180267795     0.907116855139    -0.510410872245
C                     3.665127515937     0.893051790556    -1.716426288605
N                     4.931473568818     1.554234563640    -1.481606362044
H                    -3.017834903784     1.830958403648    -0.824150123671
H                    -1.257048022990     2.021122293091    -0.924444270768
H                    -2.209051657678     1.470261771042    -2.325944030083
H                    -2.406979047770    -4.506160366459     0.782846889859
H                    -3.940733680758    -5.176372209825     0.225419580256
H                    -1.424487243805    -5.029727055129    -1.532658225434
H                    -2.978048344776    -5.760735967686    -1.965763355841
H                    -1.109805025049    -6.702932085956     0.289204188182
H                    -1.366539619266    -7.509781983123    -1.282201175799
H                    -6.610816626655    -0.971751940803    -2.513228777450
H                    -6.910359699259    -2.703457491102    -2.245498865065
H                    -5.696930928227    -3.877715924695    -5.556856381745
H                    -4.687477820551    -3.911550457191    -4.098656125698
H                    -6.388541756057    -4.400746255220    -4.006553435443
H                    -5.179692378772    -1.460558449617    -5.985064342199
H                    -4.109611099396    -1.488676550587    -4.579300679300
H                    -5.355559879106    -0.246767631414    -4.692449424570
H                    -9.034920394014    -1.023763303019    -5.200373571392
H                    -7.490837846447    -0.350806876758    -5.772924665132
H                    -7.940559448192    -0.225398132704    -4.050628319564
H                     0.164029478041     1.213430056932     0.555612242354
H                     0.853481622692    -0.303808177421     1.153932853350
H                     1.589639911060    -0.766404999375    -1.115058008466
H                     0.958045451989     0.640819171459    -1.644097839441
H                     2.444754421163     1.927332384801    -0.217339187127
H                     3.136570606793     0.395033772325     0.352594897760
H                     3.865561126341    -0.145269727873    -2.008269277158
H                     3.177701842136     1.373599076094    -2.573702270651
H                     4.835449855352     2.546605090107    -1.284253965326
H                     5.482638510641     1.117306683522    -0.747948049698
