57
1 1 C18FH30N4O3S
C                    -1.853058378579     1.337134135978    -1.733937857903
C                    -1.810020607706    -0.063407272824    -1.189874659459
C                    -0.783189172262    -0.592834286888    -0.434258054088
S                    -1.076187026576    -2.277327260297     0.030140452224
C                    -2.599595737086    -2.250136664100    -0.812697120133
C                    -2.853673983416    -1.022294322957    -1.401602467320
C                    -4.102598453584    -0.825658649145    -2.131856328665
O                    -4.400138093019     0.217774419508    -2.706162861966
N                    -4.972165370113    -1.930069966682    -2.108766839975
C                    -4.662471350374    -3.199766526239    -1.609894227008
O                    -5.376880090250    -4.174757528998    -1.746586860146
N                    -3.430523446052    -3.318788212488    -0.923838701535
C                    -3.133996498337    -4.608883643332    -0.282718608164
C                    -3.760894387952    -4.708878223210     1.112844110937
C                    -3.176692971076    -5.864511979118     1.904166371795
F                    -1.801513004523    -5.623888994722     2.116798871599
C                    -6.316620895056    -1.768024675634    -2.693419115835
C                    -7.374298683956    -1.273847647853    -1.677715747954
C                    -8.746700210855    -1.464242374979    -2.339592489324
C                    -7.160366270918     0.194318613186    -1.280679632565
O                    -7.197076087788    -2.133226511341    -0.536197264963
C                    -8.174387664910    -2.055958161164     0.493439402376
C                     0.447424586351     0.075940903852     0.034885610731
N                     0.218110902129     0.756209754815     1.409478116494
C                     1.415875525006     1.450729723777     2.018564208121
C                     1.067515881176     2.089870085827     3.377770066260
N                     2.172009279390     2.770131269012     4.021792813050
H                    -2.736188906076     1.866549322932    -1.366223303588
H                    -0.958845350969     1.911769785754    -1.473603244663
H                    -1.948147321670     1.319574242218    -2.822251038471
H                    -3.517776989186    -5.392349998618    -0.935993843855
H                    -2.047813224291    -4.715256152709    -0.230104312018
H                    -4.843803616136    -4.838662204442     1.018863370761
H                    -3.586493369963    -3.781172379288     1.669318298299
H                    -3.257826241095    -6.817601744739     1.372378846364
H                    -3.645760762465    -5.956472728170     2.886948556463
H                    -6.613969633812    -2.744022956630    -3.072607332765
H                    -6.233387251894    -1.061831523081    -3.518593943548
H                    -9.549789668928    -1.045291290303    -1.727805006246
H                    -8.775373995521    -0.952017779594    -3.306582539037
H                    -8.950308297136    -2.526451714713    -2.504742251395
H                    -7.983615597390     0.549986316006    -0.654533730225
H                    -7.108443757555     0.833727358042    -2.165043523970
H                    -6.229348645507     0.314150887794    -0.721385883190
H                    -7.841344711478    -2.740204800177     1.277241610562
H                    -9.163639384942    -2.379308265588     0.148679444188
H                    -8.255409421416    -1.047626136576     0.919590869063
H                     1.283494458443    -0.609186323082     0.190530630418
H                     0.773035764453     0.874928301898    -0.632168277671
H                    -0.555476397272     1.421846734192     1.295540013454
H                    -0.137370540896     0.040628215362     2.054934944110
H                     2.198872928739     0.695462195445     2.120842817384
H                     1.746412041163     2.200805071154     1.295916168491
H                     0.250345768959     2.808940670550     3.241531996345
H                     0.695286799658     1.313957587054     4.058075949044
H                     2.943004462434     2.149716117734     4.253679155784
H                     2.525346559859     3.556900362147     3.483986918160
