28   
torsion grid (-165,)
C       -0.6060791558   -0.5903741730    1.2100203500
C        1.2150017111    0.9856082098    1.9765585919
C        1.7483259025   -1.4549134836    1.5986152448
C       -1.9407515094   -1.0814396537    4.9947957558
C       -1.1663654974   -3.4869067861    5.0359062479
C        0.2948304219   -1.6838130796    6.0344961456
C        0.6776991800   -0.4486259323    2.0362242111
C       -0.7297646880   -2.0204893802    4.9449034711
O        0.3881389751   -0.6015946390    3.4432737337
O       -0.1113090706   -1.9726322512    3.6401982516
H       -1.0193504169   -1.5963614583    1.3094048579
H       -1.3578390877    0.1283904254    1.5508797059
H       -0.4001979179   -0.4024529798    0.1509856603
H        2.1091546446    1.0900445523    2.5981411538
H        0.4612156036    1.6969413581    2.3272206573
H        1.4772484720    1.2390237034    0.9450584806
H        2.6387146468   -1.3581251065    2.2273449044
H        1.3771648971   -2.4786860697    1.6817693090
H        2.0345719029   -1.2731227608    0.5573940143
H       -1.6289706365   -0.0430170496    4.8638295455
H       -2.6492513206   -1.3335205557    4.1995385483
H       -2.4531007340   -1.1714166218    5.9584650777
H       -0.3020102802   -4.1533448034    4.9615298890
H       -1.8671691092   -3.7333681751    4.2326108854
H       -1.6616800676   -3.6658351997    5.9948815128
H        1.1644577426   -2.3430852423    5.9534426599
H        0.6358022985   -0.6503923937    5.9419471184
H       -0.1513133958   -1.8145013696    7.0259610599
28   
torsion grid (-150,)
C       -0.6680049482   -0.5370967294    1.3968407411
C        1.2794082141    0.9564790682    1.9997288744
C        1.6844682493   -1.4803679181    1.4679595648
C       -1.9135533066   -1.1236181700    4.7971708719
C       -1.0957767603   -3.5009193947    5.0547381665
C        0.1979161798   -1.6069788133    6.1151264840
C        0.7073843109   -0.4637006772    2.0692708634
C       -0.6847412843   -2.0292888484    4.9351052595
O        0.5884570283   -0.6685935696    3.4963854648
O        0.0858116294   -2.0326457065    3.7107617405
H       -1.0978160099   -1.5350240711    1.5080863344
H       -1.3528498965    0.1888736577    1.8454599799
H       -0.5800747959   -0.3155577152    0.3280286174
H        2.2435138204    1.0104329415    2.5137130535
H        0.5958978654    1.6733835084    2.4646960958
H        1.4258212608    1.2452630770    0.9546574990
H        2.6469406928   -1.4333251920    1.9862712600
H        1.2927946945   -2.4959090739    1.5594335447
H        1.8481687147   -1.2662543847    0.4065535547
H       -1.6109639957   -0.0850319067    4.6463394398
H       -2.5252520969   -1.4352250115    3.9450966559
H       -2.5277039567   -1.1769849914    5.7022350958
H       -0.2136241820   -4.1449176563    5.1152644070
H       -1.6932648094   -3.8084277866    4.1911529049
H       -1.6943805912   -3.6451919335    5.9590976549
H        1.0849077738   -2.2450912175    6.1723242379
H        0.5251136253   -0.5708316360    6.0035916907
H       -0.3578096925   -1.6958072656    7.0545429059
28   
torsion grid (-135,)
C       -0.7112830858   -0.5231450114    1.5533880964
C        1.2937856932    0.9389687385    2.0170652086
C        1.6184886953   -1.4834074811    1.3709059716
C       -1.8686453408   -1.1380898720    4.6411280954
C       -1.0678409222   -3.4969328378    5.0505752117
C        0.1050788556   -1.5531807949    6.1627566564
C        0.7177736345   -0.4790461278    2.1005438119
C       -0.6533874049   -2.0272856127    4.9168214576
O        0.7678880315   -0.7322557520    3.5279413226
O        0.2560063273   -2.0807259354    3.7879998611
H       -1.1440642237   -1.5174997924    1.6817177681
H       -1.3493986778    0.2071437437    2.0577455297
H       -0.7031219336   -0.2897853053    0.4835809655
H        2.3044767424    0.9705928174    2.4340096145
H        0.6669568898    1.6455455033    2.5695731909
H        1.3387853086    1.2591490711    0.9718241140
H        2.6307113977   -1.4543846266    1.7850563632
H        1.2301709259   -2.4987700018    1.4812618941
H        1.6701490429   -1.2462387319    0.3030114857
H       -1.5610750697   -0.1037190839    4.4738345856
H       -2.4224953131   -1.4874394338    3.7658597085
H       -2.5429070645   -1.1585695561    5.5036606959
H       -0.1930320297   -4.1311439925    5.2203542624
H       -1.5765158651   -3.8406148899    4.1447260219
H       -1.7510240145   -3.6131543804    5.8972291421
H        0.9808471503   -2.1855872838    6.3361050042
H        0.4442249475   -0.5221036110    6.0370983156
H       -0.5411593996   -1.6003273422    7.0456325418
28   
torsion grid (-120,)
C       -0.7145545140   -0.5684587194    1.6559783455
C        1.2785729690    0.9254387437    2.0399612645
C        1.6006085610   -1.4738087392    1.3028334203
C       -1.7934209230   -1.1157723625    4.5609306217
C       -1.0589037771   -3.4813970331    5.0257248011
C        0.0526839792   -1.5403207957    6.2089612655
C        0.7378870637   -0.5063494081    2.1268126188
C       -0.6117565371   -2.0197149209    4.9097662110
O        0.9479212761   -0.8028915686    3.5379309734
O        0.4191296420   -2.1197581001    3.8847922591
H       -1.1286899487   -1.5687473704    1.7952826231
H       -1.3454174728    0.1582940009    2.1705563838
H       -0.7432109694   -0.3403284336    0.5855032084
H        2.3126144984    0.9699736897    2.3932682249
H        0.6738847089    1.6057055595    2.6474324097
H        1.2516570402    1.2690321475    1.0014546284
H        2.6431584311   -1.4219296974    1.6298820648
H        1.2497230203   -2.5006630505    1.4365764890
H        1.5545415921   -1.2280646559    0.2365647314
H       -1.4645343003   -0.0882390702    4.3950986359
H       -2.3352359626   -1.4677494711    3.6814439400
H       -2.4898386408   -1.1121760778    5.4057804212
H       -0.2084093294   -4.1282104770    5.2588398072
H       -1.5102309560   -3.8241721988    4.0896473605
H       -1.7991191465   -3.5798229445    5.8255188303
H        0.8913177442   -2.1934067824    6.4672916363
H        0.4351036288   -0.5235444663    6.0850306558
H       -0.6625726147   -1.5427534607    7.0383244852
28   
torsion grid (-105,)
C        0.1579191801   -2.4417198967    1.5378752694
C       -0.4307436517    0.0218940453    1.6983649069
C        1.9184680217   -0.6787000173    1.1611637728
C       -0.2693352193   -0.0086943206    5.4228956271
C       -1.8953538713   -1.7631982720    4.5746961397
C       -0.2297533099   -2.3480977382    6.3584778340
C        0.6435537452   -1.0480602260    1.9338955319
C       -0.4840821041   -1.4890762385    5.1109417513
O        1.1170112692   -1.0037367813    3.3189949354
O        0.5260329331   -2.0083680584    4.1864809837
H        0.9136535403   -3.1958656130    1.7718069022
H       -0.7635871349   -2.7106270237    2.0566703477
H       -0.0347264124   -2.4599293083    0.4601556401
H       -0.0786490531    0.9974562576    2.0471793280
H       -1.3638788974   -0.2128651580    2.2122077927
H       -0.6541520102    0.1029687738    0.6289344813
H        2.3223382659    0.2728193250    1.5210161755
H        2.6820434386   -1.4491017167    1.2973812069
H        1.7012811642   -0.5775092600    0.0931079897
H        0.7595776263    0.1740419323    5.7431155876
H       -0.4726991618    0.6203929326    4.5548367801
H       -0.9465599494    0.2880027768    6.2305225601
H       -2.0004937108   -2.8178377307    4.3025837414
H       -2.1272828754   -1.1554175494    3.6990828316
H       -2.6418592226   -1.5337030507    5.3429590466
H       -0.2817317941   -3.4122804134    6.1078632192
H        0.7624754688   -2.1398775107    6.7674373251
H       -0.9821271346   -2.1388713201    7.1254922825
28   
torsion grid (-90,)
C        0.0858596083   -2.4099073930    1.5691780985
C       -0.3671824332    0.0856014770    1.8183330685
C        1.8969656935   -0.7220391153    1.1299543262
C       -0.3182401423   -0.0017777559    5.3539400004
C       -1.8248195446   -1.8698682590    4.4964284693
C       -0.2371418620   -2.2954721865    6.3807457480
C        0.6531448706   -1.0494748779    1.9739611541
C       -0.4561872715   -1.4996886766    5.0825163676
O        1.2394925733   -1.0806279958    3.3148786673
O        0.6467520324   -2.0094400405    4.2661152900
H        0.8262976090   -3.1961393945    1.7375990183
H       -0.8126606368   -2.6638342344    2.1315259541
H       -0.1705337926   -2.3918912086    0.5048109669
H        0.0640567137    1.0319799222    2.1579515515
H       -1.2887050741   -0.0921343097    2.3723035484
H       -0.6363932783    0.1959386655    0.7622364804
H        2.3712394799    0.1969975874    1.4879267389
H        2.6260938785   -1.5335613562    1.1967646633
H        1.6177513385   -0.5792423010    0.0813588722
H        0.6836744741    0.2265883402    5.7264869679
H       -0.4917065933    0.5953499146    4.4587285975
H       -1.0504578950    0.2967769334    6.1113446369
H       -1.8662750614   -2.9410652847    4.2778917718
H       -2.0586872938   -1.3222328763    3.5836974817
H       -2.6106241470   -1.6423552101    5.2249463367
H       -0.2257234308   -3.3700292871    6.1736104601
H        0.7180977793   -2.0232487034    6.8368943259
H       -1.0430837515   -2.0907889559    7.0924103281
28   
torsion grid (-75,)
C        0.0619345684   -2.4233299143    1.5799896658
C       -0.3090656762    0.0867980629    1.8891536270
C        1.8936345178   -0.7758551421    1.1020983229
C       -0.3217330454    0.0204249454    5.3357157846
C       -1.7494276553   -1.9135016583    4.4662922278
C       -0.2249945861   -2.2449208185    6.4110085157
C        0.6756481257   -1.0845703779    1.9947258391
C       -0.4114545869   -1.4858428006    5.0826177479
O        1.3460488035   -1.1749262962    3.2885905238
O        0.7551225149   -1.9830133784    4.3590154807
H        0.7990994186   -3.2230827932    1.6905292090
H       -0.8107835477   -2.6823301452    2.1777141768
H       -0.2474803420   -2.3756145208    0.5306764696
H        0.1625716016    1.0104019605    2.2367516260
H       -1.2290630608   -0.0660016467    2.4513440904
H       -0.5904872880    0.2259951131    0.8397555423
H        2.4018912606    0.1296289540    1.4469968680
H        2.6064132257   -1.6036232041    1.1311680871
H        1.5718416438   -0.6189499320    0.0679954543
H        0.6550653601    0.2713532847    5.7577759837
H       -0.4568819192    0.6026779156    4.4254069309
H       -1.0976901706    0.3194983630    6.0481196170
H       -1.7471523488   -2.9885901681    4.2650541388
H       -1.9912466555   -1.3882202079    3.5435692552
H       -2.5556159893   -1.7052441131    5.1779766440
H       -0.1900478294   -3.3241171963    6.2341021361
H        0.7082398835   -1.9442397146    6.8934628541
H       -1.0596506290   -2.0322145077    7.0860238129
28   
torsion grid (-60,)
C        0.0048285847   -2.3975002566    1.5357187969
C       -0.2890756949    0.1129588472    1.9343768376
C        1.8691900653   -0.7863439794    1.0771253778
C       -0.3969103133    0.0369165564    5.3400397472
C       -1.7260531542   -1.9532023988    4.4337812489
C       -0.2485968581   -2.2194722951    6.4208054321
C        0.6608758607   -1.0895240182    1.9888919643
C       -0.4215152222   -1.4726517323    5.0807966852
O        1.3773929795   -1.2498334699    3.2457020994
O        0.7942250132   -1.9297641971    4.4238021578
H        0.7310106560   -3.2133533175    1.5871582204
H       -0.8522455111   -2.6683727372    2.1497665154
H       -0.3391749135   -2.3014185973    0.5004765970
H        0.2094554534    1.0075881564    2.3175601434
H       -1.2154142377   -0.0352391357    2.4869480086
H       -0.5640854510    0.3010323823    0.8909768196
H        2.3964607157    0.1075454445    1.4225585894
H        2.5696205684   -1.6248451338    1.0810531483
H        1.5263553333   -0.6141635879    0.0523922270
H        0.5503357920    0.3167854014    5.8090829395
H       -0.5067819936    0.6185364211    4.4265003050
H       -1.2147292772    0.3113780289    6.0146814789
H       -1.6715466503   -3.0244264247    4.2210775630
H       -1.9792879058   -1.4265371211    3.5151248600
H       -2.5512660198   -1.7903178582    5.1353304671
H       -0.1941681488   -3.2992009489    6.2546667915
H        0.6688950367   -1.8991722480    6.9201233562
H       -1.1008138086   -2.0103026545    7.0744389490
28   
torsion grid (-45,)
C        0.0916604839   -0.7784267917    0.4207470617
C        1.1430119728    0.4071185593    2.3612452846
C        1.2584798964   -2.1396782757    2.1494232258
C       -1.7835718662   -1.1659989483    6.0498122273
C       -0.7061967031   -3.0322164422    4.7719975721
C        0.6189087597   -0.9456717581    5.4314247834
C        0.4224152799   -0.8746505157    1.9267651946
C       -0.7297349437   -1.5125571236    4.9746021231
O       -0.9413902189   -0.9279754641    2.4252623556
O       -1.3538410121   -0.8240976888    3.8575417481
H       -0.4545186461   -1.6656970736    0.0892513857
H       -0.5218076816    0.1029289714    0.2195449293
H        1.0198481619   -0.7023224359   -0.1537603883
H        1.3742321875    0.4150940864    3.4247018542
H        0.5147894584    1.2752504960    2.1433722742
H        2.0850630168    0.5127235408    1.8124797320
H        1.6249651627   -2.2458458141    3.1694209449
H        0.6786985520   -3.0288465272    1.8874821925
H        2.1363624388   -2.1039235089    1.4955068632
H       -1.8474955927   -0.0837047589    6.1912421775
H       -2.7677789078   -1.5368150146    5.7541005122
H       -1.5020882773   -1.6284718672    7.0007428042
H       -0.0040358254   -3.3387132223    3.9990256408
H       -1.7018550055   -3.3813898023    4.4847207288
H       -0.4179151785   -3.5308401782    5.7036763401
H        1.4497036156   -1.2223611255    4.7839655551
H        0.5696794905    0.1445629166    5.4973680281
H        0.8470571063   -1.3346500031    6.4295257434
28   
torsion grid (-30,)
C        0.1118204821   -0.7537015734    0.4207699712
C        1.2359453851    0.3805530273    2.3500885573
C        1.2312902770   -2.1662451273    2.1435636388
C       -1.7831642936   -1.1969779976    6.0560902164
C       -0.6357537065   -3.0580018638    4.8343330923
C        0.6119329555   -0.9082468063    5.4263200408
C        0.4503007261   -0.8670769141    1.9246910813
C       -0.7162117987   -1.5334377115    4.9895334645
O       -0.9114916114   -0.8552862799    2.4267303585
O       -1.3720399252   -0.9012087759    3.8595130009
H       -0.4461442862   -1.6314600386    0.0845449144
H       -0.4919020619    0.1368375545    0.2305203932
H        1.0388786891   -0.6812985628   -0.1561574805
H        1.4796429195    0.3797029650    3.4107975122
H        0.6475755690    1.2772201690    2.1360622372
H        2.1764262846    0.4412967804    1.7915846795
H        1.6227062405   -2.2675449320    3.1553351584
H        0.6025304025   -3.0311989420    1.9166444014
H        2.0905191587   -2.1833968442    1.4647059835
H       -1.8624844869   -0.1154586934    6.1934142673
H       -2.7601030417   -1.5825300087    5.7549606123
H       -1.5016614763   -1.6550608759    7.0092122072
H        0.0779875590   -3.3634803198    4.0716052927
H       -1.6180165645   -3.4527147398    4.5598221085
H       -0.3296520827   -3.5168509739    5.7808436113
H        1.4524628695   -1.2010777528    4.7979063126
H        0.5353671392    0.1821963544    5.4334167070
H        0.8428576753   -1.2391440029    6.4444553160
28   
torsion grid (-15,)
C        0.1071555682   -0.7076498779    0.4185552935
C        1.2989403877    0.3645027629    2.3428560390
C        1.1840184166   -2.1758344797    2.1260256413
C       -1.8119738812   -1.2326497033    6.0478519051
C       -0.5887295930   -3.0768670208    4.8751371481
C        0.5764099354   -0.8720923049    5.4183079628
C        0.4555869926   -0.8460167276    1.9181341240
C       -0.7271973171   -1.5525127741    4.9941741287
O       -0.9000314778   -0.7781817745    2.4330518790
O       -1.4019111420   -0.9715619877    3.8475703548
H       -0.4687155301   -1.5712348011    0.0765309201
H       -0.4826210586    0.1956267578    0.2444013548
H        1.0309748272   -0.6416622549   -0.1645379809
H        1.5610122603    0.3430113713    3.3990214162
H        0.7444358342    1.2866193095    2.1470989097
H        2.2318962413    0.3930457315    1.7691179075
H        1.5983006162   -2.2805713124    3.1287621020
H        0.5120057382   -3.0146101132    1.9269391763
H        2.0227895600   -2.2369856704    1.4245950234
H       -1.9138506178   -0.1524405754    6.1788345664
H       -2.7779944661   -1.6387742213    5.7381073724
H       -1.5324575781   -1.6830216199    7.0053638287
H        0.1460248479   -3.3740898522    4.1292049968
H       -1.5524272240   -3.5137443936    4.5985146679
H       -0.2784867438   -3.5026692597    5.8357821578
H        1.4294197357   -1.1724902043    4.8098504670
H        0.4712931372    0.2150587137    5.3754659653
H        0.8054482755   -1.1520604898    6.4519616736
28   
torsion grid (0,)
C        0.1077737288   -0.6831949447    0.4215179223
C        1.3692848005    0.3335211193    2.3311134988
C        1.1453002209   -2.1971299953    2.1170585325
C       -1.8230942992   -1.2543241841    6.0420334590
C       -0.5308086072   -3.0863206618    4.9259240262
C        0.5571955548   -0.8320764950    5.4102827862
C        0.4697575099   -0.8397286587    1.9158164117
C       -0.7221378869   -1.5646075025    5.0027581448
O       -0.8745576882   -0.7154784401    2.4531954128
O       -1.4077061035   -1.0397304594    3.8340366867
H       -0.4928925799   -1.5306736231    0.0821273314
H       -0.4631495922    0.2347233525    0.2603603660
H        1.0254003668   -0.6334627554   -0.1730563901
H        1.6523507068    0.2954204685    3.3813780060
H        0.8494159417    1.2787037886    2.1507120296
H        2.2909111260    0.3276742246    1.7385030597
H        1.5863453207   -2.3031189185    3.1086071198
H        0.4315309271   -3.0084274671    1.9530411627
H        1.9580318797   -2.3041471989    1.3910644807
H       -1.9489283616   -0.1747931671    6.1559801023
H       -2.7774752124   -1.6847288928    5.7283327634
H       -1.5450779838   -1.6866155674    7.0083995260
H        0.2238370503   -3.3792565159    4.1983501751
H       -1.4755768213   -3.5633900842    4.6502511210
H       -0.2194830754   -3.4750245366    5.9019363947
H        1.4230942761   -1.1433585474    4.8252714767
H        0.4275786534    0.2487577683    5.3124973811
H        0.7803837225   -1.0566883507    6.4585151246
28   
torsion grid (15,)
C        0.1177219881   -0.4151549500    0.4638997586
C        1.5520581412   -0.4372282157    2.5067379475
C        0.5057748332   -2.5952712973    1.6340285148
C       -1.9368026277   -1.4883036622    5.9660483790
C        0.0943469571   -2.5723535464    5.0015603008
C        0.0910659604   -0.0792906406    5.5475277637
C        0.3352128853   -1.0835647878    1.8405855402
C       -0.7207564537   -1.2774857705    5.0353907530
O       -0.9548076523   -0.7503987553    2.4170179527
O       -1.4613020861   -0.9626162822    3.8271364420
H       -0.7899149929   -0.7985623551   -0.0086120161
H        0.0227663956    0.6680760264    0.5733597145
H        0.9710875904   -0.6343500428   -0.1853319285
H        1.8644637207   -0.9552099430    3.4134859013
H        1.3459234666    0.6093660419    2.7453180240
H        2.3980839488   -0.4684437181    1.8120792699
H        0.6427631027   -3.1335825525    2.5700299803
H       -0.3778145734   -3.0005134906    1.1328858379
H        1.3812866425   -2.7926761560    1.0056168066
H       -2.5846981685   -0.6084334045    5.9544988336
H       -2.5202978856   -2.3550228857    5.6455506641
H       -1.5866450900   -1.6531529528    6.9897649220
H        1.0497883441   -2.4590437074    4.4893244367
H       -0.4769229978   -3.3708440941    4.5211079389
H        0.3158720898   -2.8818279670    6.0284181658
H        0.9552049408    0.1394650554    4.9229816274
H       -0.5439872273    0.8106442912    5.5761373057
H        0.4552780865   -0.2774995068    6.5616546951
28   
torsion grid (30,)
C        0.1303640671   -0.3900787865    0.4781929469
C        1.5788009805   -0.4756946324    2.5056989681
C        0.4285635408   -2.5876841631    1.6422658441
C       -1.9343134575   -1.5183447420    5.9563785220
C        0.1322135097   -2.5543914528    5.0224683410
C        0.0396155164   -0.0458209884    5.4995675370
C        0.3283097525   -1.0708485733    1.8516700154
C       -0.7263811863   -1.2861226167    5.0204074494
O       -0.9400178975   -0.6816259696    2.4404102535
O       -1.4758441236   -1.0312234996    3.8038172151
H       -0.7828608836   -0.7518998269   -0.0002024957
H        0.0575373017    0.6945002536    0.5930624766
H        0.9824923006   -0.6212268892   -0.1683163103
H        1.8688743945   -0.9865514910    3.4233178440
H        1.4273704260    0.5852609417    2.7212033979
H        2.4201405120   -0.5641266202    1.8101777726
H        0.5383580340   -3.1323400293    2.5780949293
H       -0.4727196796   -2.9505709564    1.1402927167
H        1.2946564541   -2.8246055355    1.0146807654
H       -2.6005168781   -0.6524569229    5.9434157311
H       -2.5008871309   -2.3988200443    5.6424223256
H       -1.5772461506   -1.6732454433    6.9791371698
H        1.0745697839   -2.4367847666    4.4883555169
H       -0.4220908237   -3.3900453461    4.5872310457
H        0.3806377728   -2.8139143209    6.0570481052
H        0.8888986858    0.1928700645    4.8622160699
H       -0.6302886356    0.8184875697    5.5127948988
H        0.4189362417   -0.2065333508    6.5146534124
28   
torsion grid (45,)
C        0.1364099698   -0.3522919796    0.4975161731
C        1.6009705005   -0.5085918278    2.5059092207
C        0.3477073022   -2.5673925410    1.6486256475
C       -1.9402804909   -1.5557480275    5.9373609062
C        0.1645395601   -2.5392335216    5.0399378139
C       -0.0217289637   -0.0207301598    5.4480129875
C        0.3187148342   -1.0495930243    1.8640286458
C       -0.7377143112   -1.3009584195    5.0015531196
O       -0.9233251206   -0.6103049130    2.4768506470
O       -1.4838996323   -1.1061061973    3.7701150712
H       -0.7800782982   -0.6959383841    0.0121566631
H        0.0778776427    0.7321975227    0.6236296098
H        0.9880586345   -0.5853001751   -0.1488393325
H        1.8700668803   -1.0123525286    3.4331647805
H        1.5051889407    0.5630415707    2.7003551590
H        2.4339528681   -0.6525736938    1.8095096407
H        0.4430331079   -3.1190063409    2.5819556308
H       -0.5750516641   -2.8877207919    1.1570039721
H        1.1949441116   -2.8398959306    1.0101272595
H       -2.6218892692   -0.7020050474    5.9251243583
H       -2.4915264960   -2.4457588627    5.6219942969
H       -1.5823463413   -1.7083137396    6.9600926229
H        1.0940807390   -2.4183421784    4.4855688134
H       -0.3692833781   -3.4100891990    4.6500437175
H        0.4365394529   -2.7474519953    6.0802385472
H        0.8202008286    0.2313486343    4.8060561816
H       -0.7231757380    0.8180550041    5.4339697766
H        0.3584533785   -0.1394798991    6.4683600759
28   
torsion grid (60,)
C        0.2054407762   -0.3094401454    0.5463926003
C        1.6921949100   -0.5502905056    2.5294989373
C        0.3466198233   -2.5475256551    1.6663929888
C       -1.8915366799   -1.6359886241    5.9254619766
C        0.2595554038   -2.5574495017    5.0744824740
C       -0.0238081819   -0.0395799445    5.4287654305
C        0.3807701872   -1.0337748649    1.8983651065
C       -0.6868667388   -1.3529096899    5.0023537130
O       -0.8287863168   -0.5582099883    2.5530797210
O       -1.4090247496   -1.2125951981    3.7468059416
H       -0.7159129752   -0.6336281435    0.0567510028
H        0.1571476716    0.7732084688    0.6942270795
H        1.0534707923   -0.5343161650   -0.1074693725
H        1.9464547863   -1.0607813764    3.4569208667
H        1.6470059417    0.5253315373    2.7214654396
H        2.5123850069   -0.7327441590    1.8268878235
H        0.4531676734   -3.1124042906    2.5908132009
H       -0.6020389057   -2.8305685559    1.2022554969
H        1.1633894999   -2.8394305878    0.9977953443
H       -2.5890177749   -0.7951323480    5.9108676368
H       -2.4236331813   -2.5337098040    5.5979353621
H       -1.5440096946   -1.7917287823    6.9512430765
H        1.1827666307   -2.4234345144    4.5131603041
H       -0.2442121645   -3.4579493591    4.7123567429
H        0.5406565115   -2.7257468960    6.1196230634
H        0.8275686957    0.2192819799    4.8017610393
H       -0.7484849049    0.7772230750    5.3719421849
H        0.3309353996   -0.1204570565    6.4616786407
28   
torsion grid (75,)
C        0.1248283755   -0.3010180808    0.5289420195
C        1.6636845471   -0.5878582080    2.4694279112
C        0.2132986446   -2.5346301652    1.6693285635
C       -1.9590102446   -1.5974115014    5.8964480856
C        0.2297898448   -2.5007159759    5.1160837261
C       -0.1182642995    0.0201947507    5.3556190167
C        0.3169861396   -1.0223777364    1.8773957604
C       -0.7463863861   -1.3247973212    4.9849485778
O       -0.8391776974   -0.4947631949    2.5961497160
O       -1.4271980882   -1.2664399332    3.6946799361
H       -0.8150254061   -0.6080014083    0.0636191475
H        0.1000318431    0.7831571309    0.6743295001
H        0.9517296096   -0.5402349595   -0.1467520448
H        1.9095712417   -1.0883427483    3.4047760749
H        1.6715463417    0.4925512984    2.6395838990
H        2.4618702627   -0.8230353196    1.7571131020
H        0.3516633766   -3.0911411500    2.5951337011
H       -0.7689431648   -2.7899874465    1.2628341762
H        0.9808350056   -2.8605573471    0.9595855392
H       -2.6653470600   -0.7649716434    5.8493142260
H       -2.4775419580   -2.5082680442    5.5823571530
H       -1.6295688214   -1.7269244533    6.9319413846
H        1.1462640716   -2.3714699548    4.5423388496
H       -0.2520243733   -3.4299683178    4.7988431886
H        0.5188499477   -2.6121670459    6.1667151188
H        0.7511926889    0.2547246336    4.7432213414
H       -0.8498855351    0.8225918640    5.2285997297
H        0.2000338193   -0.0000521196    6.4031642888
28   
torsion grid (90,)
C        0.1380550875   -0.2493292643    0.5580227932
C        1.7386228076   -0.6331096740    2.4404182029
C        0.2099342511   -2.5129071706    1.6502513554
C       -1.9626476817   -1.6523545833    5.8702286044
C        0.2889426249   -2.4981273991    5.1864743154
C       -0.1421137815    0.0071817850    5.3667048884
C        0.3620698269   -1.0089389069    1.8769104517
C       -0.7236755954   -1.3597469665    5.0065264000
O       -0.7296610086   -0.4667709135    2.6874719147
O       -1.3214256408   -1.3627387993    3.6702948505
H       -0.8232851188   -0.5267678944    0.1181220722
H        0.1370475145    0.8308375742    0.7339408854
H        0.9360780450   -0.4811967744   -0.1542277671
H        1.9761024887   -1.1560212445    3.3666176025
H        1.7904127515    0.4435835060    2.6274734479
H        2.5162430549   -0.8879566924    1.7121675107
H        0.3864431982   -3.0852592170    2.5609155528
H       -0.7969512895   -2.7437893126    1.2929696228
H        0.9331648760   -2.8392260217    0.8956700840
H       -2.6859250851   -0.8372343088    5.7859163748
H       -2.4472280000   -2.5775547840    5.5432805769
H       -1.6754540521   -1.7667936233    6.9201462601
H        1.2070055967   -2.3440670836    4.6198145670
H       -0.1527084732   -3.4504048482    4.8781706745
H        0.5664205735   -2.5799795696    6.2430233461
H        0.7534467765    0.2373120122    4.7895847994
H       -0.8777387675    0.7942198320    5.1817653403
H        0.1234142830    0.0179868128    6.4289276128
28   
torsion grid (105,)
C        0.1313013747   -0.1960573502    0.5787846625
C        1.8076821642   -0.7425958353    2.3646311839
C        0.1604377712   -2.5075785314    1.5816295306
C       -1.9847668369   -1.6964645122    5.8404364321
C        0.3540732793   -2.4314374134    5.3039261663
C       -0.2136997372    0.0405042777    5.3977928596
C        0.3896562354   -1.0205807891    1.8485729664
C       -0.7137505583   -1.3600414538    5.0465312034
O       -0.6082031385   -0.4664287772    2.7660777166
O       -1.1995860420   -1.4406047344    3.6673656717
H       -0.8661615908   -0.4077544209    0.1846109086
H        0.1941366402    0.8744853933    0.7978376317
H        0.8751417861   -0.4337783987   -0.1882507612
H        2.0424404670   -1.3266823177    3.2554839434
H        1.9235321819    0.3185767516    2.6051605217
H        2.5456085122   -1.0002871227    1.5970201588
H        0.3663770857   -3.1128682321    2.4658509893
H       -0.8726536247   -2.6910889338    1.2756212358
H        0.8281996144   -2.8331163040    0.7772401176
H       -2.7434724304   -0.9242553032    5.6881879163
H       -2.3991289079   -2.6548032688    5.5119774812
H       -1.7591370609   -1.7681937770    6.9091267882
H        1.2845512728   -2.2192335064    4.7756579466
H       -0.0087093965   -3.4137844117    4.9865207763
H        0.5860780368   -2.4833597756    6.3733392999
H        0.7053563191    0.2867503754    4.8636282361
H       -0.9654589959    0.7936883258    5.1484606133
H       -0.0115538281    0.0883606405    6.4728602609
28   
torsion grid (120,)
C       -0.1810147819   -0.9150971471    0.7483121294
C        0.9341360583    1.0289981913    1.9232101898
C        1.6665248181   -1.3357553467    2.3957325593
C       -1.7233101875   -0.9620619642    5.6564395830
C       -1.4048239904   -3.3643303079    4.9276556579
C        0.5904234663   -1.8712950750    5.3039038051
C        0.4854760913   -0.4317466563    2.0449886230
C       -0.8626330258   -1.9334768499    4.8349799156
O       -0.5441048391   -0.3268200595    3.0707861335
O       -1.0739739045   -1.6418211022    3.4230381460
H       -0.5644335121   -1.9309850927    0.8763727879
H       -1.0192134501   -0.2620054021    0.4885879181
H        0.5332783038   -0.9164787699   -0.0818835026
H        1.3869329562    1.3746560648    2.8575161518
H        0.0841020644    1.6759237750    1.6887308564
H        1.6735353368    1.1236843037    1.1222107030
H        2.2097601960   -0.9812027826    3.2733065429
H        1.3366717359   -2.3623067001    2.5656753463
H        2.3619539506   -1.3432064692    1.5500940967
H       -1.3714258529    0.0639040020    5.5185655615
H       -2.7662963749   -1.0139509195    5.3307863679
H       -1.6762827405   -1.2039883301    6.7235392259
H       -0.8016083677   -4.0474773217    4.3219549997
H       -2.4393263753   -3.4089819662    4.5757148271
H       -1.3770823314   -3.7041836813    5.9673706869
H        1.2198715879   -2.6006232616    4.7912402240
H        1.0055199112   -0.8719864675    5.1604860249
H        0.6200667686   -2.0955675421    6.3751671038
28   
torsion grid (135,)
C       -0.2333375390   -0.9020272007    0.7945355953
C        0.9430415818    1.0444409656    1.8982803744
C        1.7416893366   -1.3137935832    2.3153762057
C       -1.7412414448   -0.9526816756    5.5883587248
C       -1.4200448337   -3.3777538038    4.9506158004
C        0.5872237320   -1.9162553462    5.4066545633
C        0.5271046385   -0.4242454190    2.0378589006
C       -0.8425193312   -1.9607088295    4.8613232514
O       -0.3809142994   -0.3656824506    3.1675320295
O       -0.8940090134   -1.7126221052    3.4330752298
H       -0.5734500367   -1.9322753340    0.9243154731
H       -1.1086249111   -0.2693010760    0.6199293923
H        0.4119132990   -0.8587708708   -0.0892613006
H        1.4531098961    1.3908565531    2.8023030543
H        0.0687499744    1.6790053475    1.7271619654
H        1.6254085276    1.1568102368    1.0504489767
H        2.2969595277   -0.9618727642    3.1887128554
H        1.4331561376   -2.3471994277    2.4868091065
H        2.4149589214   -1.2972248788    1.4519849900
H       -1.3518772353    0.0618263886    5.4739076902
H       -2.7539670690   -0.9820224464    5.1754622262
H       -1.7919614286   -1.1859454177    6.6571580738
H       -0.7946886366   -4.0870349667    4.3999068270
H       -2.4312749176   -3.4097286876    4.5350070864
H       -1.4641427429   -3.6941083115    5.9970595976
H        1.2239161682   -2.6491108340    4.9042247306
H        1.0209907997   -0.9228724628    5.2741940982
H        0.5800427918   -2.1457004296    6.4773151201
28   
torsion grid (150,)
C       -0.3260707163   -0.8480076465    0.8420848492
C        0.9709461450    1.0483687781    1.8940298301
C        1.7864018620   -1.3288723939    2.1593420252
C       -1.8073127082   -0.9559482487    5.4913913026
C       -1.4057035250   -3.3951845477    4.9680158906
C        0.5441414016   -1.9016979640    5.5631944568
C        0.5584208536   -0.4223586989    2.0195301059
C       -0.8321176222   -1.9759299422    4.8926324694
O       -0.2106941284   -0.4136679338    3.2447417865
O       -0.7146277141   -1.7763706650    3.4646532345
H       -0.6541251308   -1.8834378823    0.9576864156
H       -1.2125159252   -0.2092457551    0.7836948372
H        0.2286023122   -0.7630447679   -0.0983119753
H        1.5695205936    1.3584471375    2.7559427137
H        0.0894476512    1.6931055885    1.8318639558
H        1.5689229107    1.1886029201    0.9886218449
H        2.3993343463   -1.0149384155    3.0096734291
H        1.4828606382   -2.3665981485    2.3141349729
H        2.3996490903   -1.2793337046    1.2534491703
H       -1.4144888448    0.0587823634    5.3959436719
H       -2.7703870274   -1.0036270849    4.9742591316
H       -1.9701592284   -1.1661334487    6.5537141155
H       -0.7237037444   -4.1145188172    4.5045849818
H       -2.3706181093   -3.4498318526    4.4556262493
H       -1.5509223835   -3.6801130180    6.0143104235
H        1.2276672673   -2.6299651315    5.1162900632
H        0.9749105412   -0.9046329970    5.4479890000
H        0.4572210073   -2.1194416301    6.6328674060
28   
torsion grid (165,)
C       -0.4228015001   -0.7707804716    0.9225402034
C        1.0415178740    1.0343557788    1.9128342646
C        1.8133325411   -1.3717898592    1.9618307112
C       -1.8713478128   -0.9817979028    5.3609106233
C       -1.3413223760   -3.4243007662    4.9912040310
C        0.4824908240   -1.8476854614    5.7499028614
C        0.6034293279   -0.4312419283    2.0097020895
C       -0.8024127144   -1.9909240739    4.9257101172
O       -0.0135597420   -0.4736567997    3.3152912501
O       -0.5143195226   -1.8433971465    3.5177770096
H       -0.7646919298   -1.8035233184    1.0191787601
H       -1.2916733215   -0.1103540852    1.0022803180
H        0.0222862431   -0.6440735274   -0.0699161273
H        1.7433644397    1.2830333414    2.7145352068
H        0.1779573843    1.7020029599    1.9855732551
H        1.5361009000    1.2091889773    0.9527272085
H        2.5229971531   -1.1176402190    2.7553885288
H        1.5005661571   -2.4093964317    2.0968581603
H        2.3247025831   -1.2858245853    0.9972755712
H       -1.4990439739    0.0412252438    5.2737370378
H       -2.7625306542   -1.0797328812    4.7334860712
H       -2.1566867896   -1.1595596025    6.4030765043
H       -0.5888464330   -4.1377609400    4.6420505079
H       -2.2364405446   -3.5298964156    4.3712092642
H       -1.6024576631   -3.6737415882    6.0239539010
H        1.2330456414   -2.5685034397    5.4107290558
H        0.8967730774   -0.8425221698    5.6464643008
H        0.2776367692   -2.0316091596    6.8098381769
28   
torsion grid (180,)
C       -0.5215118268   -0.6813186591    1.0447008692
C        1.1275963563    1.0104601860    1.9406791913
C        1.7971476227   -1.4197858320    1.7668169251
C       -1.9215816843   -1.0236469518    5.1923943083
C       -1.2566342645   -3.4549749222    5.0164980781
C        0.3960299379   -1.7668850333    5.9129778626
C        0.6424372267   -0.4418152185    2.0136809850
C       -0.7686559742   -2.0036005507    4.9443721850
O        0.1867543425   -0.5367112490    3.3806053578
O       -0.3129734258   -1.9087056630    3.5774477176
H       -0.8952619497   -1.7037064256    1.1322262250
H       -1.3436329858    0.0072011735    1.2632598784
H       -0.1949578670   -0.5180912161    0.0122786055
H        1.9318778161    1.1868200573    2.6611047164
H        0.3087713128    1.7036644222    2.1550266130
H        1.5080189282    1.2224251691    0.9370432159
H        2.5992834065   -1.2492240521    2.4915536318
H        1.4580029562   -2.4533412033    1.8641646596
H        2.2025530196   -1.2806002994    0.7591286071
H       -1.5808083264    0.0092800943    5.0946096391
H       -2.7244469311   -1.1928353543    4.4681751089
H       -2.3263343897   -1.1618850234    6.2004825566
H       -0.4393588216   -4.1495683950    4.8006622446
H       -2.0619833611   -3.6291099695    4.2967473334
H       -1.6364336698   -3.6671382909    6.0203281246
H        1.2172010567   -2.4562396733    5.6933768657
H        0.7709748193   -0.7447711226    5.8267693784
H        0.0696160618   -1.9313144412    6.9452466544
