15   
torsion grid (-165,)
C        0.3618117986   -1.6772945291   -0.2480189139
C       -0.3816971581   -0.6087858409   -1.0975656973
C        0.1591313480   -0.7803475192    1.0061520900
C       -0.1610605270    0.4108232896    0.0599986944
N       -1.1900805704    1.3223999738    0.5250101481
O        0.9915647582    1.1741979380   -0.2723750598
H       -0.0796748100   -2.6763872161   -0.2138826906
H        1.4140304567   -1.7601108857   -0.5281555897
H        0.0483757944   -0.3280989016   -2.0623275524
H       -1.4435168312   -0.8438805479   -1.2224219389
H       -0.7146702403   -1.0809093607    1.5941226439
H        1.0091914783   -0.6398972609    1.6804204295
H       -1.4340236768    1.9695963376   -0.2245600798
H       -2.0330934267    0.8134949382    0.7837120542
H        1.2629979541    1.6296107660    0.5430750295
15   
torsion grid (-150,)
C        0.3763614646   -1.6595637264   -0.2450843128
C       -0.3941645895   -0.6099293811   -1.0923718516
C        0.1610961069   -0.7616954716    1.0055040610
C       -0.1832250992    0.4215332246    0.0594700500
N       -1.2248364538    1.3171358798    0.5282825121
O        0.9580370810    1.2011650019   -0.2781172540
H       -0.0456140095   -2.6667131962   -0.2043746078
H        1.4280942110   -1.7235075589   -0.5320107428
H        0.0219699777   -0.3254388601   -2.0620944429
H       -1.4518909112   -0.8680145638   -1.2079734435
H       -0.7077131183   -1.0726906773    1.5948558679
H        1.0072913082   -0.6077593064    1.6833106315
H       -1.4278824615    2.0037377765   -0.1979566591
H       -2.0828586099    0.8014256815    0.7160157617
H        1.3746214513    1.4747263584    0.5557279975
15   
torsion grid (-135,)
C        0.3920668957   -1.6416004074   -0.2413530305
C       -0.4054016685   -0.6089172032   -1.0839022916
C        0.1609491450   -0.7473818613    1.0085731768
C       -0.2024926735    0.4308272637    0.0652505834
N       -1.2588342461    1.3105550538    0.5321550997
O        0.9264424314    1.2335126764   -0.2678588371
H       -0.0065950194   -2.6580497418   -0.1987822923
H        1.4436987524   -1.6828451988   -0.5335609683
H       -0.0049243466   -0.3191079901   -2.0585604394
H       -1.4586683777   -0.8900662856   -1.1884697110
H       -0.7064849786   -1.0696771431    1.5932744779
H        0.9993068595   -0.5831392042    1.6952020178
H       -1.4162053502    2.0375471161   -0.1653976176
H       -2.1298905411    0.7933255036    0.6402953880
H        1.4763194656    1.3194286029    0.5263180115
15   
torsion grid (-120,)
C        0.4057642336   -1.6266976156   -0.2354994167
C       -0.4126779886   -0.6062385347   -1.0736559092
C        0.1617320309   -0.7378075394    1.0160975536
C       -0.2199146643    0.4370575685    0.0769572927
N       -1.2934382482    1.2993642934    0.5368519793
O        0.8926902014    1.2714283411   -0.2422784828
H        0.0247967620   -2.6498515034   -0.1929905985
H        1.4571898686   -1.6523775892   -0.5316324613
H       -0.0224581864   -0.3081192486   -2.0499277738
H       -1.4609161200   -0.9079669508   -1.1738342590
H       -0.7033627484   -1.0718119811    1.5970896054
H        0.9934627676   -0.5636554836    1.7093505221
H       -1.3962682592    2.0727046520   -0.1195471750
H       -2.1749422917    0.7887409416    0.5506648858
H        1.5576289908    1.1796418306    0.4555378046
15   
torsion grid (-105,)
C        0.4162375287   -1.6162963388   -0.2274417987
C       -0.4143647187   -0.6020880770   -1.0628002711
C        0.1631340599   -0.7335768945    1.0274255703
C       -0.2344394169    0.4401752267    0.0930723279
N       -1.3271859365    1.2834697046    0.5420986264
O        0.8573428203    1.3118995895   -0.2031505460
H        0.0464712037   -2.6436090560   -0.1874694889
H        1.4679216985   -1.6340953143   -0.5253637270
H       -0.0275767047   -0.2945069941   -2.0376111834
H       -1.4580712011   -0.9186722667   -1.1660061006
H       -0.6996120178   -1.0777526927    1.6053887724
H        0.9903466309   -0.5514704720    1.7241816791
H       -1.3720365572    2.1053652525   -0.0591286305
H       -2.2130943920    0.7888998062    0.4526955815
H        1.6142133508    1.0666697077    0.3472927558
15   
torsion grid (-90,)
C        0.4189632275   -1.6109793041   -0.2172055351
C       -0.4049951747   -0.5918374085   -1.0553109951
C        0.1619079686   -0.7320559619    1.0407387460
C       -0.2422349758    0.4438941207    0.1104038460
N       -1.3539999553    1.2672539857    0.5488366834
O        0.8283288700    1.3507489135   -0.1534788780
H        0.0462947941   -2.6373592623   -0.1833857734
H        1.4726243673   -1.6342085546   -0.5099866014
H       -0.0075229072   -0.2772529999   -2.0238988787
H       -1.4460313127   -0.9111872108   -1.1756652052
H       -0.6982795366   -1.0809754473    1.6192053814
H        0.9891426788   -0.5465736690    1.7359007266
H       -1.3687177253    2.1186442359   -0.0114561083
H       -2.2339475427    0.7805731779    0.3892434642
H        1.6477535717    0.9857265657    0.2092426949
15   
torsion grid (-75,)
C        0.4186611005   -1.6053669139   -0.2064024651
C       -0.3859824495   -0.5750611222   -1.0513809935
C        0.1519279092   -0.7326759903    1.0547360592
C       -0.2435133635    0.4499467260    0.1283765248
N       -1.3634963816    1.2639980151    0.5570473836
O        0.8173900122    1.3764023233   -0.1013168487
H        0.0364224223   -2.6285806369   -0.1835063071
H        1.4763146671   -1.6415340099   -0.4853426163
H        0.0312676275   -0.2538731797   -2.0098862977
H       -1.4249518739   -0.8898831765   -1.1972077639
H       -0.7121915683   -1.0867325334    1.6243692030
H        0.9738247935   -0.5477429796    1.7548634388
H       -1.3926855565    2.1068685345   -0.0156762463
H       -2.2357753381    0.7616689808    0.4066380360
H        1.6620743469    0.9269771434    0.0478724604
15   
torsion grid (-60,)
C        0.4104417002   -1.6019573027   -0.1960060234
C       -0.3555705698   -0.5507690212   -1.0519260400
C        0.1343299471   -0.7350658973    1.0675117914
C       -0.2350278474    0.4596047746    0.1448297454
N       -1.3585477465    1.2690578430    0.5644198045
O        0.8265651697    1.3928132388   -0.0463274891
H        0.0085530877   -2.6179116446   -0.1900207049
H        1.4737428992   -1.6594885648   -0.4503110932
H        0.0922152330   -0.2288452051   -1.9970055828
H       -1.3941071072   -0.8475522656   -1.2323145036
H       -0.7371378704   -1.0873253521    1.6275749862
H        0.9522259002   -0.5575960559    1.7725498987
H       -1.4492500498    2.0621262536   -0.0701083737
H       -2.2171868926    0.7267185575    0.5025110425
H        1.6580404944    0.9006018227   -0.1221938909
15   
torsion grid (-45,)
C        0.4063050288   -1.6013295824   -0.1860384021
C       -0.3263967072   -0.5334618126   -1.0504164003
C        0.1141720589   -0.7421945596    1.0789872946
C       -0.2267593379    0.4645367515    0.1595623959
N       -1.3506064219    1.2742291915    0.5696193959
O        0.8439903814    1.3939988807    0.0041689001
H       -0.0088626135   -2.6118891422   -0.1985732191
H        1.4748055771   -1.6713914445   -0.4141190765
H        0.1441951269   -0.2125583277   -1.9856135438
H       -1.3637950916   -0.8154004755   -1.2573965336
H       -0.7668754260   -1.0938011730    1.6249779387
H        0.9247535053   -0.5719848058    1.7928627151
H       -1.4855555019    2.0269402513   -0.1046981458
H       -2.1979819569    0.7118298099    0.5829013270
H        1.6278977265    0.9068876194   -0.2930410788
15   
torsion grid (-30,)
C        0.4088900024   -1.6031016912   -0.1766416923
C       -0.3037976241   -0.5261470488   -1.0454738593
C        0.0932593734   -0.7542696042    1.0892192327
C       -0.2198037314    0.4629467000    0.1726909966
N       -1.3404671746    1.2784351806    0.5750912401
O        0.8679688605    1.3786606150    0.0479600588
H       -0.0080847364   -2.6124595533   -0.2081830428
H        1.4821158270   -1.6712175079   -0.3804041151
H        0.1759474639   -0.2073899261   -1.9778344118
H       -1.3405795516   -0.8003622021   -1.2648694977
H       -0.7990711861   -1.1073711241    1.6160507124
H        0.8927786941   -0.5898868087    1.8158365197
H       -1.4883740001    2.0171278199   -0.1113802530
H       -2.1861330226    0.7158207845    0.6238703956
H        1.5746371534    0.9436255472   -0.4527487167
15   
torsion grid (-15,)
C        0.4106648039   -1.6096214439   -0.1665053111
C       -0.2861349581   -0.5261962996   -1.0390496280
C        0.0794030171   -0.7670386436    1.0985226370
C       -0.2123051685    0.4566977345    0.1845307344
N       -1.3308281768    1.2775959457    0.5827097353
O        0.8944579679    1.3542911293    0.0833541518
H       -0.0110440239   -2.6166155874   -0.2098170778
H        1.4860276650   -1.6791398971   -0.3550852945
H        0.2058240722   -0.2089384402   -1.9667281686
H       -1.3215618324   -0.7922382820   -1.2736738951
H       -0.8228808806   -1.1191195747    1.6092005450
H        0.8689242490   -0.6074385007    1.8363574831
H       -1.4702337972    2.0230245443   -0.0979543775
H       -2.1815237837    0.7221685755    0.6295951149
H        1.5004971939    1.0169799206   -0.5922730814
15   
torsion grid (0,)
C        0.3966463788   -1.6000553919   -0.3287514705
C       -0.2125102388   -0.4199907800   -1.1404410769
C       -0.0517527154   -0.8876306919    0.9799453512
C       -0.2274733706    0.4326415111    0.1558377523
N       -1.3800973215    1.2951992886    0.3471513383
O        0.9186620299    1.2727456214    0.2950901205
H       -0.0205858049   -2.5919339249   -0.5179022662
H        1.4849969192   -1.6577546790   -0.4179337076
H        0.3507142662   -0.0151341720   -1.9896949008
H       -1.2315425186   -0.6317944459   -1.4765595005
H       -1.0102350852   -1.2717242622    1.3456666207
H        0.6594143725   -0.8329843007    1.8080958238
H       -2.1894409914    0.7433845091    0.6255336495
H       -1.1767876561    1.9456747988    1.1050877429
H        1.4992780838    1.1437681004   -0.4679419096
15   
torsion grid (15,)
C        0.3886645060   -1.6118858417   -0.3201962168
C       -0.2075790438   -0.4241943028   -1.1308983853
C       -0.0498751655   -0.8944901047    0.9892135510
C       -0.2069884720    0.4253208311    0.1654946012
N       -1.3489046252    1.3071114817    0.3452294939
O        0.9612021227    1.2311993567    0.3134757419
H       -0.0388993299   -2.5993169212   -0.5097228342
H        1.4760469436   -1.6761804750   -0.4098279954
H        0.3611816269   -0.0286597532   -1.9809227613
H       -1.2297446891   -0.6228418352   -1.4661716555
H       -1.0146011311   -1.2629222310    1.3541047920
H        0.6625588543   -0.8512945344    1.8166584291
H       -2.1880995358    0.7615773137    0.5353305688
H       -1.1780008987    1.8987895963    1.1577510883
H        1.4223251856    1.2721986006   -0.5363348504
15   
torsion grid (30,)
C        0.3772772246   -1.6266792053   -0.3134356782
C       -0.2045268124   -0.4318594392   -1.1248262913
C       -0.0416611628   -0.8998785876    0.9972384878
C       -0.1865388956    0.4168452340    0.1714811298
N       -1.3154704581    1.3178381403    0.3420924568
O        1.0016328715    1.1894886824    0.3215128418
H       -0.0669666406   -2.6078097524   -0.4976669003
H        1.4627375992   -1.7052556633   -0.4092427970
H        0.3733018387   -0.0463018379   -1.9727376928
H       -1.2290155050   -0.6172009204   -1.4613633524
H       -1.0093912339   -1.2507413269    1.3706504401
H        0.6781867776   -0.8649050501    1.8185122441
H       -2.1798269877    0.7872546768    0.4402269201
H       -1.1829036536    1.8499708557    1.2018101525
H        1.3324513859    1.4136453748   -0.5610683938
15   
torsion grid (45,)
C        0.3637143345   -1.6441640232   -0.3084191463
C       -0.2025242176   -0.4440106690   -1.1231124537
C       -0.0295402561   -0.9037285270    1.0025271966
C       -0.1673458616    0.4078886371    0.1718206328
N       -1.2822193488    1.3266457299    0.3371950845
O        1.0367283194    1.1524121873    0.3182072379
H       -0.1010751668   -2.6176261261   -0.4828617681
H        1.4463888724   -1.7425938973   -0.4136189963
H        0.3859327016   -0.0694089663   -1.9675896853
H       -1.2286378991   -0.6169770095   -1.4622691056
H       -0.9971405039   -1.2363934194    1.3918335537
H        0.7021191809   -0.8732113784    1.8135303810
H       -2.1645372235    0.8175512079    0.3530764933
H       -1.1865362409    1.8062466725    1.2321249867
H        1.2339596572    1.5617807624   -0.5392608439
15   
torsion grid (60,)
C        0.3518301342   -1.6619440620   -0.3051808986
C       -0.2040972495   -0.4611400573   -1.1251395344
C       -0.0171844069   -0.9061712235    1.0037347939
C       -0.1498183855    0.3997028434    0.1654859781
N       -1.2483766828    1.3361662179    0.3312650421
O        1.0678135453    1.1208156674    0.3022799650
H       -0.1289150678   -2.6298537330   -0.4672624387
H        1.4317897156   -1.7761152140   -0.4204495836
H        0.3896300240   -0.0978570312   -1.9697124946
H       -1.2327886162   -0.6261369983   -1.4617799527
H       -0.9841315092   -1.2217754367    1.4080831879
H        0.7248774446   -0.8775850166    1.8054403770
H       -2.1435877699    0.8537175918    0.2763239003
H       -1.1848233820    1.7689927300    1.2525957703
H        1.1370685538    1.7035949030   -0.4725005448
15   
torsion grid (75,)
C        0.3429425575   -1.6783057991   -0.3029691811
C       -0.2102247645   -0.4818431196   -1.1297183737
C       -0.0058463307   -0.9057782299    1.0012441951
C       -0.1334879373    0.3935069056    0.1526372848
N       -1.2148022711    1.3471353759    0.3246197130
O        1.0964563951    1.0965566509    0.2719097876
H       -0.1462925173   -2.6443535308   -0.4504506376
H        1.4208953424   -1.8005080893   -0.4282088591
H        0.3810907777   -0.1310328778   -1.9801718949
H       -1.2432833120   -0.6436908952   -1.4557174195
H       -0.9729799865   -1.2060065671    1.4166743710
H        0.7432891272   -0.8776515746    1.7964709630
H       -2.1187911176    0.8941029751    0.2067419631
H       -1.1807502958    1.7339934484    1.2678096912
H        1.0510706808    1.8282865083   -0.3676880360
15   
torsion grid (90,)
C        0.3326311158   -1.6931108470   -0.3002594333
C       -0.2168654289   -0.5025875890   -1.1361284878
C        0.0075976579   -0.8999572641    0.9971624565
C       -0.1182201322    0.3911675546    0.1342103245
N       -1.1867927468    1.3560239152    0.3180436589
O        1.1212115660    1.0848487078    0.2258607298
H       -0.1679078844   -2.6560399385   -0.4296356055
H        1.4077622490   -1.8279541712   -0.4370177898
H        0.3722822510   -0.1662214275   -1.9930931492
H       -1.2539131893   -0.6603659032   -1.4525342026
H       -0.9570823810   -1.1853576994    1.4286782105
H        0.7673713298   -0.8687733273    1.7821343299
H       -2.0938708209    0.9310638741    0.1387759063
H       -1.1858322207    1.6912021403    1.2815494635
H        0.9809149826    1.9304731562   -0.2345628444
15   
torsion grid (105,)
C        0.3251017415   -1.7028887359   -0.2965726375
C       -0.2272900220   -0.5214171595   -1.1420525828
C        0.0205455726   -0.8893488902    0.9927253182
C       -0.1057418062    0.3921528002    0.1129301937
N       -1.1640030295    1.3649858982    0.3148392967
O        1.1432197097    1.0794884878    0.1620897444
H       -0.1814536163   -2.6651534118   -0.4064236261
H        1.3978476437   -1.8448702459   -0.4452105333
H        0.3546844553   -0.1994177218   -2.0087931094
H       -1.2690481048   -0.6782258883   -1.4439422825
H       -0.9412883481   -1.1631067829    1.4384625245
H        0.7898660275   -0.8530301523    1.7680672406
H       -2.0691536926    0.9728763595    0.0664677236
H       -1.2048560273    1.6351429132    1.2977382568
H        0.9408558443    1.9972237105   -0.0871419596
15   
torsion grid (120,)
C        0.3203705241   -1.7066731222   -0.2913122912
C       -0.2419084859   -0.5361715126   -1.1451726006
C        0.0353295164   -0.8744746079    0.9902319391
C       -0.0971913972    0.3960270810    0.0926673820
N       -1.1479604629    1.3728042291    0.3185172442
O        1.1596402572    1.0783863661    0.0827039897
H       -0.1879841794   -2.6701771966   -0.3803495220
H        1.3908305622   -1.8511221286   -0.4539557928
H        0.3285277836   -0.2271447351   -2.0238082140
H       -1.2887992436   -0.6946362522   -1.4279549586
H       -0.9217122432   -1.1407953360    1.4511865008
H        0.8154035648   -0.8309973497    1.7543155456
H       -2.0424265675    1.0305418065   -0.0227437174
H       -1.2510399897    1.5551782068    1.3165267780
H        0.9382067089    2.0236657324    0.0623312844
15   
torsion grid (135,)
C        0.3026655706   -1.7168076104   -0.2597483477
C       -0.3054526280   -0.5580341762   -1.1032178903
C        0.1397661739   -0.8460519088    1.0203635734
C       -0.0784473984    0.3944555558    0.1108441570
N       -1.1166701064    1.3344782290    0.5055021215
O        1.1418305809    1.1203546640   -0.0685452101
H       -0.2317793591   -2.6701686749   -0.2754375470
H        1.3528541967   -1.8942003266   -0.5025548473
H        0.2143605827   -0.2761346449   -2.0219416086
H       -1.3704876121   -0.7076453093   -1.3090467744
H       -0.7542533596   -1.1094575500    1.5962329259
H        0.9972110449   -0.7726832792    1.6923477457
H       -1.5961937729    1.7015494912   -0.3154470900
H       -1.8152177930    0.8859693295    1.0917241548
H        0.9291002274    2.0387873919    0.1621082044
15   
torsion grid (150,)
C        0.3106955983   -1.7173278050   -0.2545148255
C       -0.3266998368   -0.5766254882   -1.1015991108
C        0.1547514352   -0.8339427306    1.0179210015
C       -0.0902461986    0.3927232262    0.0949405394
N       -1.1224196254    1.3254068051    0.5188452387
O        1.1025406370    1.1394436240   -0.1447113147
H       -0.2088675404   -2.6789948165   -0.2507174597
H        1.3594687864   -1.8812233165   -0.5124570610
H        0.1701960719   -0.2994026872   -2.0343961396
H       -1.3940718913   -0.7382041403   -1.2835507514
H       -0.7297532328   -1.1001003407    1.6072572975
H        1.0181029111   -0.7454089828    1.6808423749
H       -1.5100090508    1.8088387963   -0.2914961700
H       -1.8878117596    0.8370633800    0.9770408563
H        0.9634100437    1.9921656572    0.2997790916
15   
torsion grid (165,)
C        0.3246314519   -1.7097177618   -0.2516545221
C       -0.3456545944   -0.5913132594   -1.1020024356
C        0.1600933250   -0.8180224657    1.0133647872
C       -0.1106125387    0.3955965716    0.0790395763
N       -1.1378555061    1.3225768900    0.5226208093
O        1.0627947446    1.1511792571   -0.2050879627
H       -0.1730616313   -2.6826877725   -0.2342362824
H        1.3742287488   -1.8515675938   -0.5187004161
H        0.1296469639   -0.3150996627   -2.0464038846
H       -1.4128016318   -0.7729303968   -1.2643206409
H       -0.7190306615   -1.0924907258    1.6068305743
H        1.0227883159   -0.7121716286    1.6753413175
H       -1.4683587643    1.8760855632   -0.2681200300
H       -1.9377321263    0.8226872125    0.9040165696
H        1.0402102522    1.9022869537    0.4124961073
15   
torsion grid (180,)
C        0.3429476037   -1.6954642971   -0.2497712390
C       -0.3644651535   -0.6023397342   -1.1010267344
C        0.1602005971   -0.7995582060    1.0090296542
C       -0.1357313353    0.4018611213    0.0667493690
N       -1.1609961893    1.3225515150    0.5239148532
O        1.0255392995    1.1603913134   -0.2479068041
H       -0.1268399316   -2.6818989284   -0.2226536233
H        1.3941908701   -1.8079513156   -0.5236013764
H        0.0877171957   -0.3245806902   -2.0563972552
H       -1.4296183089   -0.8100778282   -1.2437380523
H       -0.7160623286   -1.0865873823    1.6005094595
H        1.0173707760   -0.6755970073    1.6760994755
H       -1.4459642617    1.9279316765   -0.2460743869
H       -1.9850216394    0.8179156719    0.8435590553
H        1.1460191539    1.7778152721    0.4944911721
