15   
torsion grid (-165,)
C       -1.6761815517   -0.8963998064   -1.1933653186
C        0.4855737000   -0.4765284902    0.1712574431
C       -0.0423700189   -1.8417200923    0.5497512057
C       -0.9932874072   -0.7411111148    0.1295741313
C       -3.7340318203   -0.9849723755   -2.3319580644
O       -1.0719403132   -1.1381481804   -2.2238985963
O       -3.0125066912   -0.8054292112   -1.0934418271
F       -1.7652123103   -0.1829538369    1.1247141738
H        0.8180519994    0.1715229168    0.9757110890
H        0.9871871264   -0.3599181554   -0.7831533096
H        0.1027266450   -2.6662640681   -0.1401237429
H       -0.0729723276   -2.0965184501    1.6043847020
H       -4.7855775165   -0.8717065783   -2.0705792728
H       -3.5409522324   -1.9787248966   -2.7423294817
H       -3.4324027148   -0.2288098370   -3.0601203479
15   
torsion grid (-150,)
C       -1.7025132407   -1.0188481547   -1.1656064561
C        0.4341328040   -0.4263689290    0.1624757099
C        0.0407535048   -1.8333387199    0.5521874469
C       -1.0170880011   -0.8332221324    0.1510057780
C       -3.7305931870   -0.9149165331   -2.3526677245
O       -1.1138648015   -1.3951079183   -2.1647364727
O       -3.0155291313   -0.7439712859   -1.1090320644
F       -1.8114233718   -0.3346803914    1.1603323131
H        0.7154786642    0.2554169590    0.9585527130
H        0.9067953545   -0.2685414519   -0.8007991301
H        0.2450428724   -2.6407024845   -0.1427153178
H        0.0577502778   -2.0865530099    1.6073561242
H       -4.7639222893   -0.6533094719   -2.1277093011
H       -3.6576090115   -1.9502781731   -2.6928895243
H       -3.3213058766   -0.2532604795   -3.1193313104
15   
torsion grid (-135,)
C       -1.7321305390   -1.1375972850   -1.1345264941
C        0.3719557056   -0.3802465343    0.1505036895
C        0.1152697902   -1.8184109778    0.5478096186
C       -1.0361609416   -0.9256852977    0.1727875201
C       -3.7131539334   -0.8485876611   -2.3697089902
O       -1.1798768010   -1.6388402563   -2.0988934320
O       -2.9966604010   -0.6867096111   -1.1256477056
F       -1.8457345325   -0.4902916990    1.2002393693
H        0.6033751212    0.3273427971    0.9401351827
H        0.8113241065   -0.1817567429   -0.8211794314
H        0.3756459152   -2.6028255885   -0.1543905450
H        0.1824473256   -2.0675584244    1.6018276512
H       -4.7049534193   -0.4373995511   -2.1850918392
H       -3.7755649012   -1.9059488185   -2.6364301694
H       -3.2096779286   -0.3031665257   -3.1710116407
15   
torsion grid (-120,)
C       -1.7654933083   -1.2521500041   -1.0992868878
C        0.3004099957   -0.3378385020    0.1379070046
C        0.1801658335   -1.7976729404    0.5351908761
C       -1.0501413001   -1.0128697854    0.1947875594
C       -3.6812678992   -0.7865820433   -2.3846698062
O       -1.2736826210   -1.8790531793   -2.0213212927
O       -2.9568102989   -0.6338528298   -1.1442428403
F       -1.8682421750   -0.6422906107    1.2426493397
H        0.4854419036    0.3862616683    0.9248687313
H        0.7022714889   -0.0975422146   -0.8408032874
H        0.4900012582   -2.5543878585   -0.1772094133
H        0.3013710548   -2.0415412729    1.5854929297
H       -4.6121345242   -0.2386837465   -2.2426975879
H       -3.8795748275   -1.8425460215   -2.5810360140
H       -3.1062100140   -0.3669328358   -3.2132065276
15   
torsion grid (-105,)
C       -1.3719176468   -0.5980770422   -1.3883295116
C        0.6523737908   -0.9405263211    0.1711059778
C       -0.4860629535   -1.7524805496    0.7744034551
C       -0.7836892361   -0.5167782716   -0.0092180978
C       -2.0100648941    0.6236052129   -3.2981622189
O       -1.6217716828   -1.6482057920   -1.9518434419
O       -1.4867534386    0.6165977282   -1.9519220839
F       -1.1756431694    0.6042979323    0.6976078010
H        1.2366445384   -0.3170966885    0.8404808595
H        1.1804903711   -1.3399722084   -0.6887671403
H       -0.7485512324   -2.6992773662    0.3150907629
H       -0.6363710991   -1.6785553535    1.8463575191
H       -2.0613339476    1.6743347917   -3.5813605793
H       -3.0021361638    0.1673721913   -3.3227468894
H       -1.3430650561    0.0736044966   -3.9660635334
15   
torsion grid (-90,)
C       -1.4502901116   -0.6166435592   -1.3591187422
C        0.6377570377   -0.8600681906    0.1580003738
C       -0.4292649936   -1.7803050137    0.7485677380
C       -0.8252993093   -0.5493051573    0.0100257273
C       -1.9508900864    0.6120660945   -3.3080883403
O       -1.8863888800   -1.6343270217   -1.8631139782
O       -1.3751297800    0.5719174088   -1.9840803112
F       -1.2957024097    0.5182057522    0.7564742769
H        1.1836399864   -0.2185988860    0.8426860125
H        1.1872132268   -1.1904464486   -0.7180497038
H       -0.6254597108   -2.7311611846    0.2646358427
H       -0.5668765349   -1.7558336605    1.8245359861
H       -1.8283572512    1.6409439259   -3.6447269467
H       -3.0083778263    0.3410514457   -3.2703259831
H       -1.4244251769   -0.0786527448   -3.9707890731
15   
torsion grid (-75,)
C       -1.5203529837   -0.6181231430   -1.3280391832
C        0.6231525785   -0.7804996463    0.1570629551
C       -0.3717612202   -1.8083294008    0.7045820430
C       -0.8539474822   -0.5745272818    0.0284021462
C       -1.8950609439    0.5887675565   -3.3199309710
O       -2.1596878434   -1.5595793042   -1.7546065378
O       -1.2649735183    0.5062722003   -2.0225515409
F       -1.4083443889    0.4176196204    0.8249774061
H        1.1290299054   -0.1436384044    0.8760863189
H        1.1929384030   -1.0220402602   -0.7350797765
H       -0.5014781657   -2.7484806665    0.1784365109
H       -0.5008027872   -1.8491401236    1.7812002787
H       -1.6034176149    1.5584647005   -3.7218609893
H       -2.9806538956    0.5225196623   -3.2184512100
H       -1.5424918628   -0.2204427493   -3.9635945716
15   
torsion grid (-60,)
C       -1.5869304247   -0.5970690924   -1.2886267926
C        0.6046930913   -0.7017773959    0.1659224158
C       -0.3150330147   -1.8311772319    0.6438187517
C       -0.8794080538   -0.5883280195    0.0512925522
C       -1.8415182590    0.5467341909   -3.3362916015
O       -2.4144999061   -1.4197260691   -1.6249781237
O       -1.1721309832    0.4256462649   -2.0613743277
F       -1.5063625827    0.3020996746    0.9135689993
H        1.0753915935   -0.0883842963    0.9279204652
H        1.1828580018   -0.8405189581   -0.7424943544
H       -0.3797227767   -2.7443620466    0.0606543731
H       -0.4359801847   -1.9522535813    1.7155142279
H       -1.3994278451    1.4205439125   -3.8137271775
H       -2.9143834058    0.6876161808   -3.1871621153
H       -1.6753970698   -0.3502007726   -3.9374044139
15   
torsion grid (-45,)
C       -1.6540529287   -0.5459481314   -1.2337500947
C        0.5789879124   -0.6216107605    0.1834748156
C       -0.2612213043   -1.8441055366    0.5590924907
C       -0.9095179833   -0.5860409189    0.0860030686
C       -1.7872849344    0.4792824916   -3.3546163851
O       -2.6341482304   -1.2180480875   -1.4806473233
O       -1.1064695573    0.3431714988   -2.0868583460
F       -1.5889599341    0.1669537215    1.0324745772
H        1.0232035465   -0.0558192194    0.9964364399
H        1.1502132412   -0.6369539673   -0.7393251436
H       -0.2704333925   -2.7053374040   -0.1018395133
H       -0.3675066826   -2.0686381379    1.6157505143
H       -1.2173411225    1.2224260003   -3.9112870312
H       -2.8138993506    0.8164464590   -3.1955679540
H       -1.7994210991   -0.4769352479   -3.8827072365
15   
torsion grid (-30,)
C       -1.7157536986   -0.4678317897   -1.1672072377
C        0.5504346029   -0.5472943163    0.2085188940
C       -0.2159628517   -1.8429941569    0.4480418265
C       -0.9414848363   -0.5696435629    0.1286111241
C       -1.7370507309    0.3900454753   -3.3651263917
O       -2.8099998527   -0.9639608616   -1.3360905365
O       -1.0574703912    0.2573433844   -2.0963347110
F       -1.6457094420    0.0198208510    1.1625861688
H        0.9759006828   -0.0553268445    1.0775970937
H        1.1050464132   -0.4238271424   -0.7156313018
H       -0.1882342527   -2.6233852113   -0.3064295714
H       -0.3017072614   -2.1913999381    1.4726247395
H       -1.0675249949    0.9776578147   -3.9924496938
H       -2.6910892112    0.9035419756   -3.2279118275
H       -1.9172459950   -0.5939029174   -3.8041656964
15   
torsion grid (-15,)
C       -1.7635575692   -0.3835464187   -1.1051740282
C        0.5227766939   -0.4821446532    0.2417097046
C       -0.1759836512   -1.8264929156    0.3304251815
C       -0.9711262166   -0.5549763140    0.1649655719
C       -1.6989681171    0.2926730037   -3.3652100337
O       -2.9321835926   -0.6886436291   -1.2154191943
O       -1.0205036565    0.1582129396   -2.0961900576
F       -1.6871777823   -0.1350466996    1.2653191868
H        0.9263672187   -0.0719067498    1.1621069233
H        1.0629250908   -0.2262550106   -0.6628959898
H       -0.1172248599   -2.5092209220   -0.5117702684
H       -0.2451826409   -2.2956500831    1.3069193228
H       -0.9589694292    0.7116329876   -4.0464622220
H       -2.5556174663    0.9622961846   -3.2635788006
H       -2.0434258413   -0.6820889600   -3.7181124175
15   
torsion grid (0,)
C       -1.7945329514   -0.3151372673   -1.0611740349
C        0.4943534360   -0.4297220637    0.2744468581
C       -0.1354024378   -1.8059203493    0.2366436180
C       -0.9981501162   -0.5629611866    0.1872357214
C       -1.6765429852    0.2094149602   -3.3601826414
O       -2.9997512349   -0.4276488799   -1.1324841400
O       -0.9977425346    0.0428779213   -2.0957639094
F       -1.7233853112   -0.2844624763    1.3219944719
H        0.8722839070   -0.0838226393    1.2314124295
H        1.0204907445   -0.0672265267   -0.6010436169
H       -0.0449819940   -2.4005696111   -0.6668307101
H       -0.1859364038   -2.3653794097    1.1654747715
H       -0.8961262757    0.4652307827   -4.0763477427
H       -2.4142375902    1.0113833320   -3.2883309598
H       -2.1781900723   -0.7172138263   -3.6484172365
15   
torsion grid (15,)
C       -1.8082268176   -0.2701195327   -1.0384435339
C        0.4640474810   -0.3871743439    0.3094857654
C       -0.0895181241   -1.7882373066    0.1748450083
C       -1.0214855165   -0.5948891019    0.1945697017
C       -1.6699283093    0.1458671609   -3.3589745800
O       -3.0169711966   -0.1880010468   -1.0805780952
O       -0.9917930796   -0.0900776893   -2.1057823747
F       -1.7635080165   -0.4256372883    1.3384461201
H        0.8088730904   -0.0812800424    1.2921657292
H        0.9767805975    0.0578974127   -0.5353154873
H        0.0394720096   -2.3137655583   -0.7654652189
H       -0.1181221585   -2.4080119142    1.0654458358
H       -0.8791089098    0.2428736836   -4.1023453837
H       -2.2612964311    1.0621741643   -3.3012980930
H       -2.3270664388   -0.6927758373   -3.6001225150
15   
torsion grid (30,)
C       -1.9038176146   -0.2075356230   -0.9345517966
C        0.3650518572   -1.2820234094   -0.1473942583
C       -0.6565905743   -1.5405318603    0.9389064349
C       -0.7827661255   -0.3251101057    0.0508538820
C       -3.1976274814   -1.3821986188   -2.5246468770
O       -2.5407453703    0.8032083915   -1.1391962779
O       -2.1165349620   -1.3883072049   -1.5674970573
F       -0.4799611167    0.8838086433    0.6286080156
H        1.3346910807   -0.9027499952    0.1591326379
H        0.3534460223   -1.9042592560   -1.0350238414
H       -1.3742403174   -2.3417169350    0.8012544199
H       -0.3645061829   -1.3302633312    1.9628548679
H       -3.2283601101   -2.3921062268   -2.9328278759
H       -3.0015479192   -0.6521680209   -3.3129670792
H       -4.1403866190   -1.1357286241   -2.0310824109
15   
torsion grid (45,)
C       -1.8917264789   -0.2065103750   -0.9491501248
C        0.3820258429   -1.2220221819   -0.1519671770
C       -0.6347110766   -1.5878917832    0.9104977775
C       -0.8200973300   -0.3402858504    0.0882354994
C       -3.2300673752   -1.3899214163   -2.4950760463
O       -2.3914276167    0.8422349607   -1.2945941762
O       -2.2258420660   -1.4186966362   -1.4578718001
F       -0.5759510480    0.8529843254    0.7250838948
H        1.3281720296   -0.8064369877    0.1796441630
H        0.4085280480   -1.7994118797   -1.0695938935
H       -1.3075598615   -2.4175153467    0.7259258341
H       -0.3577411084   -1.4162175230    1.9457447736
H       -3.3644233282   -2.4283679558   -2.7967887548
H       -2.8897376975   -0.7831843517   -3.3371629635
H       -4.1633363667   -0.9764391750   -2.1065042225
15   
torsion grid (60,)
C       -1.8742796171   -0.2183618857   -0.9710318789
C        0.4069512079   -1.1566434506   -0.1450829057
C       -0.6077282292   -1.6320432366    0.8800173612
C       -0.8520119514   -0.3639527599    0.1160077760
C       -3.2748862136   -1.3906254320   -2.4682711551
O       -2.2267788549    0.8403957385   -1.4440909744
O       -2.3463935065   -1.4271339654   -1.3624401143
F       -0.6818250933    0.8130141672    0.8088685821
H        1.3209896733   -0.7013549591    0.2223654499
H        0.4861155055   -1.6904646216   -1.0863796376
H       -1.2256386560   -2.4906797050    0.6442431228
H       -0.3564980637   -1.4961489126    1.9270353725
H       -3.5300924768   -2.4312346782   -2.6667457412
H       -2.8072436849   -0.9331276735   -3.3431154762
H       -4.1645754725   -0.8193208020   -2.1949569975
15   
torsion grid (75,)
C       -1.8378461174   -0.2468348927   -1.0156083889
C        0.4485288567   -1.0848176357   -0.1146093718
C       -0.5784778846   -1.6742410213    0.8425773234
C       -0.8699372815   -0.3939684487    0.1248585083
C       -3.3410771487   -1.3825236113   -2.4388413217
O       -2.0362953006    0.7924584815   -1.6072273086
O       -2.4546606525   -1.4179937774   -1.2983644033
F       -0.8056460190    0.7626135658    0.8729206133
H        1.3135297107   -0.5890021029    0.3141181198
H        0.6088070855   -1.5692607561   -1.0726309609
H       -1.1267294253   -2.5592959244    0.5408952659
H       -0.3792535391   -1.5767168100    1.9049201628
H       -3.7231501864   -2.3979124693   -2.5406419324
H       -2.7955405036   -1.0820066857   -3.3363036499
H       -4.1561470274   -0.6781800884   -2.2596398723
15   
torsion grid (90,)
C       -1.7907262656   -0.2968689737   -1.0754853825
C        0.4995683133   -1.0082290512   -0.0644875955
C       -0.5408063498   -1.7135236046    0.8017943340
C       -0.8752186287   -0.4300916598    0.1155683491
C       -3.4206219917   -1.3615681457   -2.4089377990
O       -1.8417002277    0.6916935881   -1.7759021802
O       -2.5514308758   -1.3993528909   -1.2547454203
F       -0.9491616262    0.6990059256    0.9099305874
H        1.2986928524   -0.4749709252    0.4405359894
H        0.7583440384   -1.4375905269   -1.0275407597
H       -1.0026169305   -2.6214585158    0.4299993441
H       -0.4137665029   -1.6547967126    1.8780183230
H       -3.9326561415   -2.3232879129   -2.4178095526
H       -2.8357673112   -1.2246008897   -3.3213690160
H       -4.1360277859   -0.5420418810   -2.3131464375
15   
torsion grid (105,)
C       -1.7396773597   -0.3616251861   -1.1391193269
C        0.5443440442   -0.9262877560   -0.0057971792
C       -0.4952820932   -1.7498864973    0.7562656171
C       -0.8756538440   -0.4662414791    0.0986207082
C       -3.5002250373   -1.3302710214   -2.3754071011
O       -1.6475968700    0.5377381837   -1.9481579595
O       -2.6357133532   -1.3678877134   -1.2175495836
F       -1.1071819821    0.6196071219    0.9276577538
H        1.2663747685   -0.3657761586    0.5796171583
H        0.9019883916   -1.2857048966   -0.9659104685
H       -0.8595545281   -2.6725140295    0.3167942234
H       -0.4429364863   -1.7361536473    1.8402869393
H       -4.1404812094   -2.2074265441   -2.2876166660
H       -2.9081894332   -1.3714752729   -3.2925735123
H       -4.0941104410   -0.4137772796   -2.3706878193
15   
torsion grid (120,)
C       -1.6922623268   -0.4376380334   -1.1951630966
C        0.5726591408   -0.8422488730    0.0512627137
C       -0.4405031019   -1.7820599617    0.7095760732
C       -0.8793858405   -0.5013549540    0.0827062452
C       -3.5711291815   -1.2873200042   -2.3417696719
O       -1.4612705133    0.3268128700   -2.1092482291
O       -2.7132817644   -1.3181255818   -1.1788450937
F       -1.2677954910    0.5206928703    0.9371176970
H        1.2142995050   -0.2636029566    0.7082545551
H        1.0128811820   -1.1202055934   -0.9014196265
H       -0.7010766522   -2.7100079382    0.2104330880
H       -0.4529075963   -1.8176377630    1.7944313463
H       -4.3279778588   -2.0505353175   -2.1638455972
H       -2.9959653679   -1.5128561706   -3.2427281060
H       -4.0301795662   -0.3015947693   -2.4443395137
15   
torsion grid (135,)
C       -1.6574157453   -0.5184242002   -1.2315570488
C        0.5811349339   -0.7560281241    0.1000181972
C       -0.3756950885   -1.8084794022    0.6597479661
C       -0.8918531794   -0.5320133047    0.0761346427
C       -3.6279662418   -1.2355205521   -2.3133138430
O       -1.2932942687    0.0555349104   -2.2380705810
O       -2.7915261699   -1.2393066214   -1.1349581914
F       -1.4181671370    0.3992770227    0.9589121566
H        1.1467128057   -0.1687603639    0.8164468655
H        1.0781795405   -0.9397245289   -0.8472628038
H       -0.5342750169   -2.7284154879    0.1052817584
H       -0.4361113501   -1.9012897013    1.7397625315
H       -4.4929192185   -1.8461328985   -2.0564973523
H       -3.0883930983   -1.6632853909   -3.1614299765
H       -3.9323061990   -0.2151135333   -2.5567915378
15   
torsion grid (150,)
C       -1.6427678902   -0.5979116074   -1.2406825715
C        0.5729101693   -0.6709793075    0.1363299472
C       -0.3005485559   -1.8264548504    0.6071693855
C       -0.9134255011   -0.5586747392    0.0822658208
C       -3.6705199953   -1.1792882805   -2.2970391517
O       -1.1622747704   -0.2619700180   -2.3055361290
O       -2.8733457382   -1.1236358493   -1.0937207980
F       -1.5418910780    0.2597665611    1.0046033538
H        1.0725078053   -0.0830002938    0.8995376533
H        1.0971319574   -0.7556694870   -0.8099061475
H       -0.3663775578   -2.7230185004   -0.0017868210
H       -0.3874792924   -1.9837898987    1.6779661869
H       -4.6280997725   -1.5986599189   -1.9902622442
H       -3.1878135305   -1.8171999833   -3.0410554500
H       -3.8019016830   -0.1771960033   -2.7114602511
15   
torsion grid (165,)
C       -1.6443703047   -0.6833510422   -1.2322952487
C        0.5544683899   -0.5954587128    0.1597805253
C       -0.2174255795   -1.8370207717    0.5662695119
C       -0.9386720687   -0.5967069168    0.0937287063
C       -3.7027755490   -1.1191739128   -2.2957126771
O       -1.0865577278   -0.5823287839   -2.3090807319
O       -2.9431340977   -0.9952790679   -1.0735922643
F       -1.6339301073    0.1150618436    1.0510884434
H        0.9938454621   -0.0005521982    0.9539416492
H        1.0862852367   -0.5943875752   -0.7856132227
H       -0.2037303858   -2.7036254831   -0.0874121177
H       -0.3067666506   -2.0501280162    1.6270824759
H       -4.7216602014   -1.3416055012   -1.9805227570
H       -3.3012589502   -1.9280950994   -2.9104455798
H       -3.6682128989   -0.1850309385   -2.8607939290
15   
torsion grid (180,)
C       -1.6566185997   -0.7807302759   -1.2155716997
C        0.5249820995   -0.5323152696    0.1718841637
C       -0.1312075304   -1.8431735079    0.5502646520
C       -0.9666271812   -0.6590664440    0.1105222841
C       -3.7231435190   -1.0544869189   -2.3113484323
O       -1.0610679281   -0.8677071862   -2.2744856617
O       -2.9896605089   -0.8846962934   -1.0787175425
F       -1.7070635895   -0.0320310259    1.0899532658
H        0.9101234020    0.0826792419    0.9787723591
H        1.0487875526   -0.4656839464   -0.7754270270
H       -0.0488580290   -2.6855820748   -0.1288165656
H       -0.1988077542   -2.0875756276    1.6057832176
H       -4.7713654931   -1.1007875053   -2.0181319050
H       -3.4181971153   -1.9778615212   -2.8091479270
H       -3.5451712389   -0.2086638212   -2.9791103977
