18   
torsion grid (-165,)
C        3.6579681521   -3.8653374184   -0.3975622659
C        1.8831997365   -3.1025870700   -1.5242396305
C        2.3002417723   -4.2665047093   -0.8382243910
C        1.7270667466    0.7103870781    1.0937911124
C        2.4652037294   -0.5372176617    0.6175337393
N        4.0256907871   -2.6576194691   -0.7608509515
N        2.9717092106   -2.1906236232   -1.5696896981
O        1.7330782420   -5.3808931927   -0.6175217376
O        3.8306801317    0.2719081211   -1.5533694654
O        1.3489717937   -0.2151678197   -1.7816348867
S        2.6603869071   -0.5402551971   -1.1957717949
H        4.3421470937   -4.4760360085    0.1879020909
H        1.0021587178   -2.9090567561   -2.1181000981
H        2.2819373685    1.6192445297    0.8407700879
H        0.7366054011    0.7723933066    0.6362662580
H        1.6078503548    0.6744232687    2.1830319147
H        1.9165896438   -1.4583257617    0.8399341520
H        3.4764078849   -0.6164539691    1.0174705239
18   
torsion grid (-150,)
C        3.5857855229   -3.9009681477   -0.3226819125
C        1.9849668537   -3.1744477318   -1.7013221059
C        2.3418372072   -4.3446677183   -0.9951001658
C        1.8198867154    0.7842765789    1.1014643989
C        2.5086297523   -0.4979821984    0.6403262643
N        3.9432396594   -2.6633867916   -0.5779075368
N        3.0159088006   -2.2114629605   -1.5394146867
O        1.8061090681   -5.4935450300   -0.9098280632
O        3.6449097730    0.3184462987   -1.6497782294
O        1.1944311509   -0.3773853791   -1.6558488975
S        2.5750379997   -0.5741297302   -1.1814586362
H        4.1949002645   -4.5026073351    0.3487912145
H        1.1856683997   -2.9886437174   -2.4031273743
H        2.3703503495    1.6687495500    0.7665545928
H        0.8011256924    0.8410646068    0.7099305833
H        1.7747795971    0.8033687423    2.1967414568
H        1.9624084896   -1.3970120250    0.9410154767
H        3.5407289040   -0.5796138053    0.9798234124
18   
torsion grid (-135,)
C        3.5061807971   -4.0079703304   -0.2809934906
C        2.1170893591   -3.2466146549   -1.8562206260
C        2.4602591187   -4.4632707778   -1.2220693147
C        1.9232792428    0.9399461577    1.1192949563
C        2.5071388379   -0.4168536434    0.7290640226
N        3.7697214042   -2.7180848765   -0.3265787470
N        2.9885598428   -2.2359160383   -1.3850926787
O        2.0374998524   -5.6532020491   -1.3725389707
O        3.3500988569    0.3251806344   -1.6911582680
O        0.9858609963   -0.5743947156   -1.4452393415
S        2.4118524376   -0.6298340455   -1.0803143553
H        4.0486511989   -4.6349167035    0.4231845766
H        1.4301005446   -3.0377383131   -2.6626898916
H        2.4889115299    1.7552980439    0.6593434381
H        0.8786929272    1.0218369767    0.8072203586
H        1.9705899768    1.0587259254    2.2080528684
H        1.9483377205   -1.2544132978    1.1524928939
H        3.5582446643   -0.5261385272    0.9932969522
18   
torsion grid (-120,)
C        3.2385561009   -4.0119347726   -0.5695444043
C        3.9162652427   -2.6096247577   -2.1728130529
C        4.0657566776   -3.9677467292   -1.7890084367
C        1.9835110608    1.1640851610    1.1118354679
C        2.2560487546   -0.2925120909    0.7394910785
N        2.6644354409   -2.8640645168   -0.2423328672
N        3.0179129164   -2.0073994113   -1.2717758720
O        4.7103662346   -4.9289032832   -2.3182142285
O        4.3385840589    0.2242983121   -0.8750250835
O        2.0178539421    0.2994404388   -1.8495875907
S        2.9774305105   -0.3392710095   -0.9297574538
H        3.0596119378   -4.8862254428    0.0511234399
H        4.2800075654   -2.0670636073   -3.0334800399
H        2.9057117317    1.7521672357    1.1087625411
H        1.2776316729    1.6217342080    0.4139642035
H        1.5536528927    1.2041138080    2.1188856088
H        1.3536130218   -0.9025499133    0.7061360123
H        2.9767594715   -0.7738895763    1.4002862984
18   
torsion grid (-105,)
C        3.1011550423   -4.0001656915   -0.6170606178
C        4.0676405114   -2.5996736331   -2.0655649087
C        4.2037052018   -3.9292622900   -1.5968751295
C        2.1407403948    1.1028969610    1.1514925690
C        2.2998569334   -0.3458901803    0.6927080453
N        2.3936136624   -2.8918308843   -0.4956483947
N        2.9191109643   -2.0390809069   -1.4658789990
O        5.0186924319   -4.8580555618   -1.8999805333
O        4.1548280821    0.2363670609   -1.1539921323
O        1.7338747225    0.2391377217   -1.8516269603
S        2.8143905144   -0.3671310678   -1.0544676152
H        2.8388973567   -4.8643015992   -0.0112315217
H        4.6070810138   -2.0564418406   -2.8273395602
H        3.0804368179    1.6530694577    1.0512993254
H        1.3731695118    1.6157753657    0.5656784579
H        1.8413318071    1.1190978272    2.2057047980
H        1.3754285799   -0.9198669518    0.7464643694
H        3.0770544494   -0.8823225378    1.2395761108
18   
torsion grid (-90,)
C        2.9995062650   -3.9280043512   -0.6643449353
C        4.1906791661   -2.5045534315   -1.9078001214
C        4.3112543526   -3.7925255393   -1.3383920014
C        2.3457854830    0.9897602121    1.1943511923
C        2.3508169634   -0.4273859209    0.6245513541
N        2.1985088770   -2.8947434915   -0.8000492613
N        2.8764213656   -2.0273854767   -1.6790853652
O        5.2440419492   -4.6554336077   -1.3596289253
O        3.9034264669    0.3419600023   -1.4058249740
O        1.4328508903    0.1359561138   -1.8456730658
S        2.6381028896   -0.3775898003   -1.1756196102
H        2.6686573013   -4.7842474008   -0.0802894705
H        4.8578593058   -1.9536729857   -2.5537353679
H        3.2970180381    1.4917327031    0.9998521666
H        1.5416375590    1.5858751175    0.7531029399
H        2.1883326563    0.9479181489    2.2784609970
H        1.4066710384   -0.9532288444    0.7626022106
H        3.1602713971   -1.0413593030    1.0278000842
18   
torsion grid (-75,)
C        2.8737073374   -3.8881927568   -0.7171378394
C        4.2231148239   -2.4193769830   -1.7255521303
C        4.2855557768   -3.6978567841   -1.1265240091
C        2.4959286738    0.9125048638    1.1827334717
C        2.3983716746   -0.4772965131    0.5594889948
N        2.0698511700   -2.8956832838   -1.0215707424
N        2.8668771783   -1.9987329173   -1.7650448742
O        5.2394876173   -4.5174395055   -0.9502183764
O        3.6733701617    0.4415479043   -1.5981389740
O        1.2015447373    0.0072306404   -1.8190815829
S        2.5020767287   -0.3853179096   -1.2578715662
H        2.4746723819   -4.7544144429   -0.1932878607
H        4.9735851177   -1.8488338148   -2.2520682466
H        3.4354628670    1.3967772555    0.9055336737
H        1.6684861097    1.5497840517    0.8559452711
H        2.4535293869    0.8288805291    2.2750217949
H        1.4569508799   -0.9823252088    0.7753655839
H        3.2287832985   -1.1276151143    0.8523133268
18   
torsion grid (-60,)
C        2.7185518701   -4.0242224685   -0.8459732229
C        4.4461966581   -2.7450343425   -0.2259107997
C        3.9440302872   -4.0498718572   -0.0113669858
C        1.7428276231    0.7293370780    1.1311331109
C        1.9406957666   -0.6130413582    0.4334460107
N        2.5038086251   -2.8952371556   -1.4835528670
N        3.6327397608   -2.1065126836   -1.1998120471
O        4.3648822665   -5.0256217111    0.6834934614
O        4.3404942511    0.2193750748   -0.4095263699
O        2.4820234683    0.0435448179   -2.1180659927
S        3.1523465450   -0.4832533604   -0.9223295626
H        2.0114221159   -4.8429742812   -0.9613803748
H        5.3805457773   -2.2895461377    0.0675818990
H        2.6865325424    1.0925558752    1.5457139751
H        1.3580412614    1.4828230205    0.4368520598
H        1.0215166287    0.6171945790    1.9490115483
H        1.0302383687   -0.9918712270   -0.0324838553
H        2.3497217412   -1.3779357739    1.1014192919
18   
torsion grid (-45,)
C        2.7280404831   -4.0806913391   -0.9971173629
C        4.3492715812   -2.8173868798   -0.1066485071
C        3.8678308644   -4.1478871874   -0.0518517836
C        1.7213409486    0.8149069275    1.1251429042
C        2.0578930139   -0.5827250286    0.6141272774
N        2.5398323162   -2.9058769249   -1.5610054026
N        3.5996332862   -2.1249189857   -1.0952527845
O        4.2536264675   -5.1682171097    0.5988579272
O        4.3819960639    0.2083652625   -0.4456455563
O        2.3625235857   -0.0131391421   -1.9729409365
S        3.1550852117   -0.5027379193   -0.8389158034
H        2.0669168453   -4.9050115248   -1.2552050898
H        5.2566667575   -2.3757577045    0.2794784404
H        2.6285897704    1.3478669511    1.4225396130
H        1.2110746897    1.4019795649    0.3556597865
H        1.0605565822    0.7424669277    1.9967216576
H        1.1778776252   -1.1319848745    0.2726869536
H        2.5941990091   -1.1884008380    1.3490520329
18   
torsion grid (-30,)
C        2.7953220211   -4.0993368875   -1.2032544983
C        4.2218374589   -2.7714822808   -0.0967129721
C        3.8452499308   -4.1366256931   -0.1596100441
C        1.6447520672    0.9481673120    0.9896829681
C        2.0648805979   -0.4676638368    0.6063553576
N        2.5644142592   -2.9083085048   -1.7212494221
N        3.4950705205   -2.0851244626   -1.1051398310
O        4.2560931688   -5.1601380872    0.4714848508
O        4.2816811360    0.2922076817   -0.6678518879
O        2.1492477122   -0.0668248316   -2.0178234085
S        3.0480402080   -0.4655875942   -0.9292028549
H        2.2354564849   -4.9546449234   -1.5740886953
H        5.0715696974   -2.2928715508    0.3693234014
H        2.5210077471    1.5789472512    1.1638057078
H        1.0400830652    1.4046675841    0.2006482183
H        1.0490201115    0.9231701077    1.9094385281
H        1.2118912472   -1.1172120354    0.3937692242
H        2.6928758690   -0.9465945656    1.3604616968
18   
torsion grid (-15,)
C        2.8816524623   -4.1870788189   -1.2925328005
C        4.0959182175   -2.8305453792    0.0148385365
C        3.8396059701   -4.2150282817   -0.1662385919
C        1.6775345584    1.0470606001    0.9492312228
C        2.0794732045   -0.3949773199    0.6548644134
N        2.5994285923   -2.9828127719   -1.7592574801
N        3.3825833525   -2.1422931806   -0.9981521001
O        4.2834139850   -5.2417624125    0.4379601675
O        4.2391276416    0.2447382634   -0.7614448788
O        2.0402355504   -0.1726981046   -1.9880656626
S        2.9881413589   -0.5122157901   -0.9217877963
H        2.4293070568   -5.0545077435   -1.7665411810
H        4.8746440767   -2.3226538983    0.5665196486
H        2.5610063950    1.6856792254    1.0373157382
H        1.0390341724    1.4459179372    0.1557572265
H        1.1230276294    1.0929971296    1.8935958303
H        1.2177221292   -1.0562168687    0.5326085282
H        2.7378720242   -0.8167040292    1.4168996740
18   
torsion grid (0,)
C        3.0004164498   -4.2393811546   -1.4759090556
C        4.0061943005   -2.9024469835    0.0117073737
C        3.9478335738   -4.2754859314   -0.3440760973
C        1.7113285136    1.0878047635    1.0251479115
C        1.9996866693   -0.3803044688    0.7251278967
N        2.5508219139   -3.0357897080   -1.7950340982
N        3.1637832023   -2.2068175730   -0.8869666234
O        4.5299846620   -5.2966330833    0.1431865636
O        4.1291638393    0.1655823751   -0.7557228169
O        1.8934515660   -0.2290698183   -1.9229904655
S        2.8571467525   -0.5659544556   -0.8707451194
H        2.6687256446   -5.0936531938   -2.0602496305
H        4.6719949388   -2.3650570904    0.6716024367
H        2.6406198258    1.6611830408    1.0810598019
H        1.0784477673    1.5282500424    0.2492813079
H        1.1904447003    1.1764269864    1.9853053790
H        1.0891818254   -0.9770861110    0.6302598533
H        2.6462372112   -0.8441366128    1.4734884244
18   
torsion grid (15,)
C        3.0900369180   -4.2489598124   -1.5915273810
C        3.9197530497   -2.9720554512    0.0444666711
C        4.0276133620   -4.2952417307   -0.4503567046
C        1.7796828631    1.1467208458    1.0372767537
C        1.9666461566   -0.3456134524    0.7783956050
N        2.4983507761   -3.0839690176   -1.7885716062
N        2.9603099344   -2.2997234802   -0.7500388133
O        4.7144679295   -5.2918943331   -0.0577781926
O        4.0747980883    0.0558253488   -0.7717509807
O        1.8031969372   -0.2874477010   -1.8743965032
S        2.7722334743   -0.6301282998   -0.8275264069
H        2.8585245394   -5.0738403015   -2.2606470611
H        4.4464216801   -2.4600349487    0.8368534463
H        2.7446013432    1.6605719364    1.0511269248
H        1.1559528767    1.6018868452    0.2625354402
H        1.2905458512    1.2984064876    2.0059959433
H        1.0188542006   -0.8861128278    0.7250070485
H        2.6017199138   -0.8221612962    1.5288735613
18   
torsion grid (30,)
C        3.2126002127   -4.2106964477   -1.6536643481
C        3.8005984393   -3.0026346866    0.1310221078
C        4.0585939730   -4.2704007765   -0.4407843174
C        1.8470775392    1.2020318238    1.0137258013
C        1.9966749842   -0.3042146492    0.8185925356
N        2.5371318243   -3.0909357625   -1.8140205267
N        2.8234175474   -2.3572466041   -0.6677088143
O        4.7845649442   -5.2425002284   -0.0604199722
O        4.0246232514   -0.0031751479   -0.8634175655
O        1.6943401524   -0.3317978843   -1.8241872381
S        2.7084350231   -0.6662730507   -0.8156776265
H        3.1056665109   -5.0001369177   -2.3937866504
H        4.1553456491   -2.5571064066    1.0497062427
H        2.8189320403    1.6987099549    0.9496083356
H        1.1885178814    1.6298687518    0.2524774695
H        1.4146287894    1.4084478197    1.9990044276
H        1.0397192188   -0.8297827815    0.8418521019
H        2.6644537292   -0.7512081309    1.5583126685
18   
torsion grid (45,)
C        3.3981856822   -4.1175270631   -1.8070692496
C        3.7149391748   -3.0633942001    0.1382581140
C        4.1169284473   -4.2495012348   -0.5176324480
C        1.9740856420    1.1915769119    1.0366086040
C        2.1429599492   -0.3162571297    0.8684120247
N        2.6601713150   -3.0373794304   -1.9274809310
N        2.7608951012   -2.4070401159   -0.6813794355
O        4.8570175172   -5.2150758259   -0.1533524918
O        4.0361001367   -0.0614198103   -0.9761816942
O        1.6311231928   -0.3209066447   -1.7433106983
S        2.7119400178   -0.6935551258   -0.8184616542
H        3.4283220915   -4.8318097162   -2.6267195417
H        3.8780786139   -2.7507455510    1.1603270609
H        2.9226529750    1.7084257385    0.8676444108
H        1.2360050854    1.5814259861    0.3301492750
H        1.6323119630    1.4156206051    2.0530598585
H        1.2052831732   -0.8611787173    0.9947606087
H        2.8907599301   -0.7208837473    1.5530652362
18   
torsion grid (60,)
C        3.5018001518   -4.0527888090   -1.7984067774
C        3.5079229808   -3.0953258643    0.2246863471
C        4.0500670707   -4.2251135844   -0.4303154988
C        1.9635959474    1.1954819487    1.0261875701
C        2.2298029514   -0.3034496970    0.9088446086
N        2.7241786801   -3.0092447238   -1.9561609282
N        2.6217980613   -2.4424904593   -0.6736755678
O        4.7779260721   -5.1796129304   -0.0201241066
O        3.9542660932   -0.1255331166   -1.1053895815
O        1.4843565919   -0.3148561489   -1.6474240629
S        2.6328928384   -0.7170287283   -0.8182492954
H        3.6809405974   -4.7152838625   -2.6422838077
H        3.4649350425   -2.8841001079    1.2845355146
H        2.8447125962    1.7702895390    0.7274033005
H        1.1246254694    1.4918050787    0.3911113628
H        1.7222212296    1.4482309920    2.0644398356
H        1.3555628282   -0.9040941530    1.1691736550
H        3.0829720636   -0.6152788305    1.5133069616
18   
torsion grid (75,)
C        3.9279985249   -3.9588486408   -1.6623681755
C        2.1872038843   -3.2660005382   -0.4373904288
C        2.6041801010   -4.4060566669   -1.1623592336
C        1.5329118819    1.1425044782    0.8079686893
C        1.8067699787   -0.3541963416    0.6809171568
N        4.2852457002   -2.7560263586   -1.2835662419
N        3.2572543237   -2.3314010494   -0.4227517467
O        2.0685353708   -5.5409102640   -1.3470659991
O        4.1884920184    0.0996131067   -0.4158408934
O        2.2122910170   -0.3481478884   -1.9441578661
S        2.9531373553   -0.6486488195   -0.7035202629
H        4.6024282814   -4.5433779097   -2.2841643420
H        1.3729634502   -3.1746671075    0.2686326729
H        2.4585622644    1.6920806557    0.9981066650
H        1.0797591426    1.5328464650   -0.1076779843
H        0.8422939225    1.3230742950    1.6389715576
H        0.8987654655   -0.9182453729    0.4619635822
H        2.2903817350   -0.7667102768    1.5690888861
18   
torsion grid (90,)
C        4.0149896174   -3.9922945826   -1.5859741583
C        2.1199544409   -3.2694685804   -0.6460798282
C        2.6361156334   -4.4311931136   -1.2649711717
C        1.5209566892    1.1381615050    0.8086616998
C        1.8928927073   -0.3398445582    0.7219525318
N        4.3117409681   -2.7679367088   -1.2143578639
N        3.1719642767   -2.3252462316   -0.5303149313
O        2.1294296817   -5.5740133413   -1.4873785642
O        4.1747444813    0.0753727422   -0.5764177548
O        2.0553230277   -0.3139432123   -1.9250642845
S        2.9034382700   -0.6403411818   -0.7620171046
H        4.7744011010   -4.5946963250   -2.0793125939
H        1.1848742476   -3.1258994110   -0.1226548424
H        2.4171674247    1.7615981420    0.8715688684
H        0.9460946254    1.4446545107   -0.0694483599
H        0.9122107895    1.3159739380    1.7019856254
H        1.0103738606   -0.9768369744    0.6385546214
H        2.4993609224   -0.6708919369    1.5673706054
18   
torsion grid (105,)
C        4.0364551882   -4.0610457568   -1.3347198238
C        2.0546972174   -3.2329844576   -0.7204170553
C        2.6180286156   -4.4502745506   -1.1689285877
C        1.6118172524    1.1782311632    0.8898647683
C        2.0165108903   -0.2907716641    0.8030612903
N        4.3142177767   -2.8080472778   -1.0384806689
N        3.1081450870   -2.2963400164   -0.5694711186
O        2.1105422569   -5.5981657671   -1.3720467671
O        4.1975493838    0.0544437517   -0.6760291522
O        1.9620011978   -0.2715294155   -1.8462069104
S        2.8936718071   -0.6173611164   -0.7567775094
H        4.8404995099   -4.7144456246   -1.6649653402
H        1.0444445543   -2.9911043280   -0.4217236665
H        2.4911422183    1.8274269456    0.8502333111
H        0.9466195639    1.4455362152    0.0643867322
H        1.0878568610    1.3647416874    1.8338166335
H        1.1519480054   -0.9578188693    0.8240933698
H        2.7100214964   -0.5846712207    1.5937401779
18   
torsion grid (120,)
C        4.0192483668   -4.1331063365   -1.1479744931
C        1.9939860284   -3.2411380624   -0.8347499299
C        2.5894717897   -4.5013079563   -1.0897724454
C        1.6770068100    1.1503617808    0.9388445484
C        2.0825061678   -0.3144387656    0.8015947286
N        4.2790731920   -2.8496451046   -0.9693792429
N        3.0400281158   -2.2945651031   -0.7195846331
O        2.0863498147   -5.6617829486   -1.2294935016
O        4.1601498162    0.0249980404   -0.8269495297
O        1.8438367733   -0.2679671056   -1.8373392974
S        2.8460204259   -0.6270257391   -0.8190625932
H        4.8472179279   -4.8156381824   -1.3221541193
H        0.9584213111   -2.9414055548   -0.7626199803
H        2.5470858911    1.8064849533    0.8446745003
H        0.9516027728    1.4245381619    0.1681994263
H        1.2224445913    1.3204325471    1.9212425296
H        1.2282425161   -0.9917277195    0.8737495653
H        2.8328991330   -0.6151103141    1.5363027384
18   
torsion grid (135,)
C        4.0370581645   -4.0519896509   -1.0393241509
C        1.9853592333   -3.1565403538   -0.9687705780
C        2.6112649001   -4.4312624728   -0.9774484387
C        1.7218948966    1.0820684931    1.0204417005
C        2.0932537728   -0.3693905540    0.7308359301
N        4.2702891730   -2.7499468321   -1.0869370293
N        3.0157758607   -2.1909537663   -1.0645123459
O        2.1264049894   -5.6069384616   -0.9454786843
O        4.1248855209    0.1205959832   -0.9271664275
O        1.7980018563   -0.1046414543   -1.9044486146
S        2.8145402980   -0.5371135726   -0.9320139025
H        4.8803739282   -4.7367926036   -1.0729675976
H        0.9538219727   -2.8740761898   -1.1254597808
H        2.6018417621    1.7294240088    0.9658725549
H        0.9811206692    1.4427358782    0.3017183615
H        1.2968298835    1.1628477171    2.0273384646
H        1.2317542895   -1.0400703967    0.7575605699
H        2.8571933465   -0.7538056237    1.4111237630
18   
torsion grid (150,)
C        3.9756650142   -4.0192395560   -0.7905109638
C        1.9218852365   -3.1570419662   -1.0450917592
C        2.5465760976   -4.4038417639   -0.7817162819
C        1.7948485740    1.0068710832    1.0318069241
C        2.1032177352   -0.4415688967    0.6645191351
N        4.2109845423   -2.7438464772   -1.0402056543
N        2.9564917303   -2.2123100938   -1.2681721382
O        2.0684853266   -5.5654364159   -0.5892125719
O        4.0495895518    0.1209194110   -1.0733908758
O        1.6953517540   -0.1160571191   -1.9631209526
S        2.7489135554   -0.5568278262   -1.0352303461
H        4.8170928006   -4.6909560568   -0.6393512395
H        0.9117023084   -2.9289210949   -1.3561936603
H        2.6922054385    1.6282575607    0.9621424535
H        1.0332703107    1.4218166511    0.3656457203
H        1.4190347242    1.0567971909    2.0601579611
H        1.2239709183   -1.0876900431    0.6981973434
H        2.8837536133   -0.8799622804    1.2917917566
18   
torsion grid (165,)
C        3.9225819940   -3.9376009111   -0.6595694073
C        1.9165510191   -3.1215019220   -1.2346744640
C        2.5030004975   -4.3371850890   -0.8037197297
C        1.8220978877    0.9219659226    1.0764474404
C        2.1918324915   -0.4952757639    0.6492107264
N        4.1835504505   -2.6824584388   -0.9653331910
N        2.9656712721   -2.1797709024   -1.4108593649
O        2.0116969123   -5.4882301276   -0.5855994663
O        3.9865483584    0.1951431243   -1.2048688645
O        1.5862783453   -0.1130250396   -1.9364440446
S        2.7177130924   -0.5338171372   -1.0947745459
H        4.7373285331   -4.5870657907   -0.3478013567
H        0.9416579560   -2.9171205913   -1.6544676021
H        2.6730403915    1.5999169618    0.9632404592
H        0.9922002536    1.3040047009    0.4754250144
H        1.5166001690    0.9245270186    2.1290797315
H        1.3579470149   -1.1966883881    0.7217342938
H        3.0412615115   -0.8969230662    1.2074435498
18   
torsion grid (180,)
C        3.7605819052   -3.9280328950   -0.5489114356
C        1.8394633618   -3.1475514851   -1.3945722376
C        2.3646736380   -4.3373240774   -0.8358261176
C        1.6961122134    0.7499815193    1.1074303904
C        2.2685404907   -0.5876998976    0.6484010958
N        4.0595360090   -2.6926117725   -0.8884376514
N        2.9029259206   -2.2129631937   -1.5152057500
O        1.8487958464   -5.4759850833   -0.6121422914
O        3.8400355985    0.2098153033   -1.3675008385
O        1.3884275218   -0.1934538954   -1.8520700986
S        2.6193327464   -0.5730838537   -1.1395485155
H        4.5272940182   -4.5558881670   -0.1001513222
H        0.9033085735   -2.9553549201   -1.8984906825
H        2.4008623530    1.5652925900    0.9176999129
H        0.7620983704    0.9715616121    0.5843108086
H        1.4923422253    0.7160380133    2.1839471901
H        1.5757414216   -1.4207989110    0.7967047502
H        3.2229284607   -0.8264753922    1.1214486863
