28   
torsion grid (-165,)
C        2.3532241233    2.9241935787    5.4485958229
C        1.4870597279    2.0317241039    6.0827660113
C        3.0866731212    2.5199873000    4.3323444375
C        2.1156820757    0.2789042123    4.4932941099
C        1.3670432701    0.7289725704    5.5983341607
C        2.9636207788    1.2104521515    3.8650283330
C        6.8575525118   -3.7505723611    6.4269831471
C        6.8563311195   -2.2801286511    6.0445059129
C        6.1073537372   -3.2843849247    5.2043042358
C        4.1026404710   -2.1213381321    4.4771883767
C        2.5997787759   -2.0480116300    4.7337399590
N        4.6615298077   -3.2379933080    5.2523467184
O        1.9702284836   -0.9786701111    3.9868719587
Cl       0.2225205815   -0.3555804720    6.3629176149
Cl       3.8739414897    0.7251219189    2.4518015048
H        2.4474736238    3.9408251991    5.8184523074
H        0.8947209573    2.3405731556    6.9378718685
H        3.7516538529    3.2088070698    3.8217543092
H        7.7687798018   -4.3243792804    6.2841936697
H        6.2561206019   -4.0371784945    7.2837900953
H        6.2598807073   -1.6142015499    6.6609404131
H        7.7642457789   -1.8443768720    5.6388236522
H        6.5619565233   -3.5163403177    4.2363408264
H        4.2916786443   -2.1951119492    3.3951659459
H        4.5768177312   -1.1982744807    4.8229810836
H        2.4087345157   -1.9362037202    5.8039560977
H        2.0947511436   -2.9547634235    4.3892355238
H        4.2996891251   -4.1037445508    4.8536142323
28   
torsion grid (-150,)
C        2.3104787799    2.9669796387    5.3950329914
C        1.4727932086    2.0752105787    6.0672971868
C        3.0208859577    2.5517287311    4.2680086838
C        2.0849384703    0.3012390737    4.4949553420
C        1.3582331512    0.7621777623    5.6100791810
C        2.9037968299    1.2321285376    3.8283045796
C        6.8651532386   -3.8857113411    6.3157713071
C        6.8772795638   -2.3721997115    6.2144803528
C        6.1349237403   -3.1969605635    5.1892977843
C        4.1017032335   -2.0767683562    4.4741556291
C        2.6047888029   -2.0147458893    4.7662630564
N        4.6921836389   -3.1743999008    5.2449153564
O        1.9440199450   -0.9674272071    4.0156423996
Cl       0.2476920068   -0.3225729149    6.4230263128
Cl       3.7843575427    0.7326361307    2.4012593250
H        2.4002262484    3.9914805119    5.7436828100
H        0.8980123958    2.3922440344    6.9313436495
H        3.6632788880    3.2395496796    3.7279954583
H        7.7762580493   -4.4284277350    6.0813372071
H        6.2518641209   -4.3243417440    7.0967448986
H        6.2687893611   -1.8244141844    6.9275642766
H        7.7963380501   -1.8792118245    5.9116541636
H        6.5957723830   -3.2581613912    4.1983288446
H        4.2651062083   -2.1592716756    3.3884086229
H        4.5763784835   -1.1458985848    4.8005976706
H        2.4384742244   -1.8852463198    5.8385770635
H        2.1034300152   -2.9340652438    4.4508325850
H        4.3313475394   -4.0646627946    4.9045928485
28   
torsion grid (-135,)
C        2.2493229909    3.0018820594    5.3193222478
C        1.4390337685    2.1118274313    6.0265398194
C        2.9495597834    2.5726758693    4.1911602553
C        2.0596474642    0.3118373493    4.4871132235
C        1.3421144973    0.7863154412    5.6025152109
C        2.8503680895    1.2409140103    3.7849892394
C        6.8935520224   -4.0045960580    6.1904552185
C        6.9336244446   -2.5001372439    6.3618764817
C        6.1804461741   -3.1143631842    5.2017228181
C        4.1176055077   -2.0377815014    4.4808833674
C        2.6269264847   -1.9868619628    4.8057007081
N        4.7389128530   -3.1084243154    5.2576086166
O        1.9347310717   -0.9705710573    4.0410603939
Cl       0.2651790613   -0.2989090023    6.4588685103
Cl       3.7171512601    0.7232065251    2.3559621102
H        2.3254926923    4.0360033889    5.6418030478
H        0.8721548555    2.4391624207    6.8919742061
H        3.5703560472    3.2589451902    3.6245704598
H        7.7953452664   -4.5147872151    5.8652285919
H        6.2704942857   -4.5653627874    6.8809345647
H        6.3276810951   -2.0745717992    7.1556677655
H        7.8649593796   -1.9803674160    6.1554278162
H        6.6420566573   -3.0168882493    4.2143803801
H        4.2567097316   -2.1399622326    3.3931668027
H        4.5877063994   -1.0942687431    4.7777962610
H        2.4828836859   -1.8292729534    5.8774453336
H        2.1325155534   -2.9219240866    4.5275913991
H        4.3788379674   -4.0200522213    4.9824413349
28   
torsion grid (-120,)
C        2.2037687358    3.0354067775    5.2409394414
C        1.4183988501    2.1539053259    5.9859851441
C        2.8907650280    2.5845358093    4.1130981417
C        2.0384265116    0.3206804619    4.4861359453
C        1.3331946715    0.8159300738    5.6003310154
C        2.8038349050    1.2408051530    3.7452674419
C        6.9231199133   -4.0941470116    6.0623424083
C        6.9762061461   -2.6500340261    6.5122965860
C        6.2176762539   -3.0303090859    5.2560392105
C        4.1279791702   -2.0029387877    4.5080214697
C        2.6425814821   -1.9606547518    4.8580240134
N        4.7750155213   -3.0431542877    5.2984298958
O        1.9238948952   -0.9751737966    4.0777683416
Cl       0.2865571213   -0.2599752649    6.5046384167
Cl       3.6533453930    0.6959752443    2.3158857101
H        2.2706365833    4.0790079253    5.5335925827
H        0.8616338301    2.4971300910    6.8518231505
H        3.4920230560    3.2633323719    3.5172005668
H        7.8198933698   -4.5448409440    5.6477827760
H        6.2976954543   -4.7700467748    6.6391914095
H        6.3705089847   -2.3732030229    7.3694451325
H        7.9141439551   -2.1110733695    6.4088689190
H        6.6793040332   -2.7631844779    4.3017077350
H        4.2484441955   -2.1305979788    3.4205240424
H        4.5899770170   -1.0456018137    4.7721710721
H        2.5155422237   -1.7750638374    5.9274291340
H        2.1559296579   -2.9093444048    4.6144986265
H        4.4206967094   -3.9713826044    5.0833208643
28   
torsion grid (-105,)
C       -1.1046057507   -0.6861760715    0.4340941188
C        0.0758017155   -0.1316924357    0.9337870771
C       -1.2912478442   -2.0700456719    0.4319427146
C        0.9128016801   -2.3724675153    1.4470818686
C        1.0688961523   -0.9748533557    1.4330993377
C       -0.2854572276   -2.8976729988    0.9331697660
C        7.2936552127   -3.1778516460    1.1407674209
C        6.1376116205   -2.2041438095    1.2164435495
C        5.9617495973   -3.5367430155    0.5150294283
C        4.0033316051   -4.2451293812    1.9050562330
C        2.9116375510   -3.5868913560    1.0728464604
N        5.1347919702   -4.5952156127    1.0547234239
O        1.8645168212   -3.1828991293    1.9873595149
Cl       2.5478718938   -0.2839242474    2.0687491666
Cl      -0.5132728430   -4.6328855742    0.9306668138
H       -1.8835762427   -0.0363380940    0.0464560750
H        0.2284759299    0.9426223777    0.9427855388
H       -2.2056404220   -2.5095500352    0.0469024789
H        8.1288156059   -2.9530507718    0.4832046942
H        7.5643553385   -3.6952260521    2.0576706834
H        5.6628571046   -2.0627533146    2.1815333700
H        6.1654103462   -1.3117359013    0.5984167693
H        5.9357558838   -3.4722080402   -0.5724661098
H        4.2496708799   -3.5716470275    2.7405809742
H        3.6076660415   -5.1671506126    2.3423160259
H        2.5086517340   -4.2866511049    0.3328441685
H        3.3044608422   -2.7052222622    0.5559733817
H        5.6917646410   -5.3416836276    1.4530392963
28   
torsion grid (-90,)
C       -1.2037683522   -0.7316114973    0.3677466658
C       -0.0488274368   -0.1276379907    0.8695993171
C       -1.3427622541   -2.1209868750    0.3871961852
C        0.8591680962   -2.3282767330    1.4282000177
C        0.9682704861   -0.9267107838    1.3926456129
C       -0.3145453297   -2.9048496452    0.9124808801
C        7.3727112701   -3.3605906280    0.9843693083
C        6.3695147088   -2.3081671612    1.4120031761
C        5.9289757530   -3.4888080188    0.5633597075
C        3.9651824773   -4.1695314233    1.9297380822
C        2.8899746649   -3.4970632479    1.0875548430
N        5.0946512185   -4.5459420054    1.0876085627
O        1.8331956964   -3.0957907551    1.9913175366
Cl       2.4161866793   -0.1757110832    2.0307497157
Cl      -0.4828289038   -4.6469030791    0.9398756492
H       -2.0007602008   -0.1158977380   -0.0385290871
H        0.0660795598    0.9513707162    0.8616989560
H       -2.2375963921   -2.5981850715    0.0011092476
H        8.1088815585   -3.1090199591    0.2262473941
H        7.7315907994   -4.0430469650    1.7508526813
H        6.0777263312   -2.2949872151    2.4572815773
H        6.4077442598   -1.3294712680    0.9427432785
H        5.7325913065   -3.2482440462   -0.4810935361
H        4.2276526559   -3.4887219764    2.7544676976
H        3.5470849701   -5.0780879167    2.3742721382
H        2.4942028970   -4.1884927768    0.3359318924
H        3.2934235693   -2.6114023428    0.5847886611
H        5.6402168067   -5.2991695997    1.4882511721
28   
torsion grid (-75,)
C       -1.3268570513   -0.7809677440    0.3211150841
C       -0.1954759119   -0.1206456973    0.8052047649
C       -1.4102484645   -2.1739700550    0.3732023030
C        0.8005348331   -2.2698669792    1.4111112130
C        0.8541005356   -0.8664507164    1.3428128020
C       -0.3508482038   -2.9044281061    0.9131441708
C        7.4111132783   -3.5230092879    0.8619597805
C        6.5999953665   -2.4609884870    1.5821470127
C        5.9269692516   -3.4334000661    0.6253358533
C        3.9297139818   -4.0710360499    1.9300557023
C        2.8645808675   -3.3837421920    1.0868381218
N        5.0492654143   -4.4836730678    1.0871888624
O        1.8053427658   -2.9856318017    1.9888360146
Cl       2.2726124473   -0.0440096523    1.9579925709
Cl      -0.4509704304   -4.6506383170    0.9829820701
H       -2.1486758233   -0.2068664717   -0.0964929881
H       -0.1233063792    0.9615752232    0.7721117059
H       -2.2865334515   -2.6950205195    0.0015655919
H        8.0795751094   -3.2218705607    0.0606562369
H        7.7755635510   -4.3573340595    1.4566690426
H        6.4316870355   -2.6042436294    2.6454895535
H        6.7087639038   -1.4244782405    1.2759670737
H        5.6362616654   -3.0092255546   -0.3344675310
H        4.2207957982   -3.3865260044    2.7422393479
H        3.4889190811   -4.9624326908    2.3871344717
H        2.4709837761   -4.0679917311    0.3277213128
H        3.2715440517   -2.4942728477    0.5931805799
H        5.5710947586   -5.2438324693    1.5079485717
28   
torsion grid (-60,)
C       -1.3944544030   -0.8156252920    0.2844165346
C       -0.2697051168   -0.1257670070    0.7419950790
C       -1.4559867886   -2.2078721533    0.3734612169
C        0.7643011848   -2.2429377691    1.3961278958
C        0.7953097629   -0.8412205064    1.2904529033
C       -0.3811130037   -2.9072462838    0.9238784550
C        7.4164084740   -3.5786140420    0.7514155124
C        6.7658734802   -2.5921753974    1.7077085658
C        5.9295303445   -3.3639452377    0.6982807525
C        3.9103697590   -4.0086006309    1.9341337939
C        2.8417473874   -3.3346845337    1.0845383556
N        5.0351047934   -4.4288986953    1.0944510396
O        1.7840332719   -2.9286510005    1.9845166904
Cl       2.2053835414    0.0191237405    1.8722447533
Cl      -0.4535858730   -4.6522519867    1.0397638371
H       -2.2281508118   -0.2652196858   -0.1414550626
H       -0.2144198651    0.9561825785    0.6800268693
H       -2.3268334437   -2.7519168590    0.0225485696
H        8.0228420934   -3.1963653559   -0.0643776276
H        7.7752363042   -4.5170368959    1.1680206925
H        6.6881959438   -2.8885957506    2.7504400243
H        6.9298453477   -1.5295872816    1.5510270141
H        5.5683205601   -2.7901838322   -0.1523450997
H        4.2057229606   -3.3161917697    2.7382119673
H        3.4700306690   -4.8958587365    2.3996663861
H        2.4483215337   -4.0308707759    0.3363807221
H        3.2408560484   -2.4500695289    0.5762466918
H        5.5555373690   -5.1678742553    1.5568213877
28   
torsion grid (-45,)
C       -1.4374826378   -0.8482073319    0.2454945691
C       -0.3241999966   -0.1320999307    0.6906138498
C       -1.4775531240   -2.2392955893    0.3609136393
C        0.7416671353   -2.2199870531    1.3857451256
C        0.7512349003   -0.8202656205    1.2534338173
C       -0.3925550134   -2.9112741742    0.9253784900
C        7.4179041221   -3.6104782638    0.6235789214
C        6.9619899855   -2.7452334518    1.7894257127
C        5.9578660180   -3.2982105528    0.7899067054
C        3.9105334374   -3.9314891172    1.9607159966
C        2.8364183717   -3.2844130269    1.0969281616
N        5.0404603022   -4.3658007755    1.1283625342
O        1.7712153453   -2.8786847490    1.9880106319
Cl       2.1471676544    0.0730167365    1.8198010320
Cl      -0.4377864717   -4.6546523547    1.0743915682
H       -2.2792002196   -0.3191089646   -0.1914448138
H       -0.2857713035    0.9491952503    0.6080081952
H       -2.3394329896   -2.8033969167    0.0196737861
H        7.9599294188   -3.1428898519   -0.1930396790
H        7.7430221924   -4.6238411967    0.8476186566
H        6.9775373876   -3.1940072705    2.7796671286
H        7.1965047611   -1.6843142794    1.7710143218
H        5.5405329191   -2.5849761204    0.0839724847
H        4.2056546352   -3.2236964568    2.7511979382
H        3.4729488514   -4.8103322567    2.4443747791
H        2.4550122866   -3.9986291297    0.3597450734
H        3.2220443627   -2.4027399944    0.5734358638
H        5.5474658617   -5.0921133648    1.6278004707
28   
torsion grid (-30,)
C       -1.4817936654   -0.8814130440    0.1918251434
C       -0.3721795833   -0.1402966242    0.6039790287
C       -1.5115251047   -2.2670808228    0.3624161538
C        0.7108852494   -2.1911652591    1.3773154916
C        0.7101985083   -0.7978072498    1.1895893434
C       -0.4197921810   -2.9084274618    0.9490437810
C        7.3748400361   -3.5734770933    0.5032812103
C        7.1423305055   -2.9420039450    1.8688091547
C        5.9780567449   -3.2251785894    0.9340077936
C        3.8870404548   -3.8749697495    2.0025548922
C        2.8116352939   -3.2520784831    1.1223820805
N        5.0308663217   -4.2963824375    1.1769465261
O        1.7473372409   -2.8181631888    2.0011419595
Cl       2.1016798483    0.1273637377    1.7148645795
Cl      -0.4517244889   -4.6448506648    1.1672348867
H       -2.3287786244   -0.3760279031   -0.2626463225
H       -0.3418798721    0.9370890191    0.4782637643
H       -2.3704842277   -2.8503239555    0.0469712375
H        7.8471716080   -2.9776034372   -0.2721366526
H        7.6383448505   -4.6280263049    0.4755500501
H        7.2484396718   -3.5827445408    2.7412788663
H        7.4577239906   -1.9139031762    2.0261961416
H        5.5254372704   -2.3658305447    0.4474763244
H        4.1656204109   -3.1596085420    2.7915669784
H        3.4588629653   -4.7562647149    2.4898534417
H        2.4291198088   -3.9871341304    0.4067452393
H        3.1979324680   -2.3881525424    0.5703503963
H        5.5108827916   -5.0432290105    1.6744715930
28   
torsion grid (-15,)
C       -1.5026525187   -0.9226685630    0.0988306554
C       -0.3975676199   -0.1765603745    0.5142207959
C       -1.5409571966   -2.3040860259    0.2995396116
C        0.6634778923   -2.2139388852    1.3515427998
C        0.6714693642   -0.8250473040    1.1332914660
C       -0.4623391411   -2.9363666232    0.9193624997
C        7.2417477188   -3.4410056368    0.3415779309
C        7.2527984926   -3.0578804639    1.8150487354
C        5.9452848335   -3.1656616046    1.0523835916
C        3.8409746811   -3.8610250374    2.0666596038
C        2.7655865535   -3.2840046815    1.1554822613
N        5.0096483141   -4.2588290015    1.2638503835
O        1.6871353566   -2.8299757401    2.0064180238
Cl       2.0572015445    0.1063932566    1.6633159776
Cl      -0.5049262644   -4.6674054950    1.1751440735
H       -2.3394005325   -0.4244456656   -0.3817525135
H       -0.3607172417    0.8976575593    0.3653033227
H       -2.3965621396   -2.8910151258   -0.0181752728
H        7.6062641040   -2.7206058657   -0.3850465634
H        7.4555844606   -4.4770386089    0.0918418850
H        7.4779734432   -3.8429554192    2.5337518673
H        7.6239678566   -2.0757579301    2.0961826318
H        5.4480927481   -2.2327449237    0.8030169570
H        4.0813453375   -3.1262128568    2.8501660520
H        3.4321033691   -4.7473099279    2.5612021898
H        2.3983080350   -4.0485044692    0.4630933874
H        3.1497619812   -2.4381461358    0.5745686926
H        5.4894774727   -4.9977326874    1.7729838197
28   
torsion grid (0,)
C       -1.4546611885   -0.9434181420    0.0087955993
C       -0.3723902008   -0.1881154652    0.4655911786
C       -1.4931919018   -2.3238667523    0.2160648463
C        0.6650816788   -2.2139256743    1.3578210601
C        0.6739390076   -0.8262100018    1.1323896526
C       -0.4375613738   -2.9458910783    0.8839599404
C        7.0622628806   -3.3180817567    0.2118427308
C        7.3720036224   -3.1784234068    1.6967244653
C        5.9418900976   -3.1389290907    1.2020861963
C        3.8222502777   -3.8376197656    2.2058118925
C        2.7769141689   -3.2761706728    1.2506566594
N        5.0164996116   -4.2373896968    1.4507840036
O        1.6654331440   -2.8196141917    2.0567620568
Cl       2.0307480903    0.1167297041    1.7145246373
Cl      -0.4807140216   -4.6755908996    1.1486794945
H       -2.2735413187   -0.4531452965   -0.5092785046
H       -0.3358561276    0.8854357771    0.3119181340
H       -2.3313906517   -2.9178623597   -0.1333279857
H        7.3183539886   -2.4949710814   -0.4495220121
H        7.1674468302   -4.3051235872   -0.2298512590
H        7.6939269791   -4.0734003343    2.2251459850
H        7.8356445452   -2.2614543494    2.0506044258
H        5.4554109356   -2.1673348544    1.2090700545
H        4.0271046536   -3.0930530996    2.9911006612
H        3.4018949761   -4.7217656067    2.6943657041
H        2.4402558004   -4.0501201154    0.5532095073
H        3.1783513460   -2.4342578508    0.6754879787
H        5.4980513735   -4.9613821037    1.9769595457
28   
torsion grid (15,)
C       -1.3610688841   -0.9862560659   -0.1571990478
C       -0.3100365984   -0.2206812367    0.3523096094
C       -1.4045869866   -2.3647694006    0.0617247873
C        0.6855518342   -2.2324375013    1.3222369625
C        0.6998639273   -0.8469506227    1.0834548989
C       -0.3854403966   -2.9744934679    0.7944732687
C        6.7613903268   -3.1677275725    0.0832016981
C        7.4296091702   -3.3348870202    1.4440735551
C        5.9376353365   -3.1364759151    1.3466184593
C        3.8039867193   -3.8230914183    2.3592118742
C        2.8034775503   -3.2875369466    1.3423791524
N        5.0314040118   -4.2218806379    1.6787478901
O        1.6483406619   -2.8256543415    2.0817432360
Cl       2.0170415216    0.1087452765    1.7314169286
Cl      -0.4359695494   -4.7017500303    1.0741581380
H       -2.1517185263   -0.5055602496   -0.7256535760
H       -0.2699265468    0.8515116193    0.1901899223
H       -2.2189100013   -2.9666754339   -0.3282468863
H        6.9236978782   -2.2423889791   -0.4632964528
H        6.6650297461   -4.0564587930   -0.5335262390
H        7.7860645476   -4.3306520101    1.6988835015
H        8.0435024330   -2.5270310954    1.8318310128
H        5.5737479452   -2.1582986418    1.6585911658
H        3.9614466269   -3.0574246271    3.1368329895
H        3.3695104562   -4.7005528414    2.8472434521
H        2.5087968982   -4.0760308151    0.6421163437
H        3.2312496882   -2.4528225642    0.7756919581
H        5.5159553962   -4.9543203560    2.1849893503
28   
torsion grid (30,)
C       -1.2805943736   -1.0146777411   -0.2442403040
C       -0.2570988709   -0.2394616584    0.3051454613
C       -1.3232459367   -2.3926963849   -0.0219713863
C        0.7116416911   -2.2402240088    1.3234292561
C        0.7261604887   -0.8554907093    1.0800414303
C       -0.3310001350   -2.9923425571    0.7546820359
C        6.4705969285   -3.0037333011    0.0869100679
C        7.3832660715   -3.4200314241    1.2350954007
C        5.9323043688   -3.1175362358    1.4945149275
C        3.7947642198   -3.8030118415    2.4979364127
C        2.8354848548   -3.2775610929    1.4369032619
N        5.0503442775   -4.1966527200    1.8771498605
O        1.6457089333   -2.8239512690    2.1248793440
Cl       2.0083882975    0.1121209055    1.7779731434
Cl      -0.3803537037   -4.7190675854    1.0384719862
H       -2.0505329850   -0.5418698138   -0.8467268602
H       -0.2180666633    0.8324083653    0.1406197004
H       -2.1163962798   -3.0019379295   -0.4429469391
H        6.6002628587   -2.0152247814   -0.3458364869
H        6.1681191757   -3.7811280120   -0.6081344309
H        7.6888691521   -4.4631973034    1.2644094544
H        8.1325200479   -2.7198461411    1.5918853573
H        5.7377830352   -2.1735060954    2.0090456507
H        3.9163779730   -3.0278229623    3.2736338538
H        3.3447420355   -4.6782194660    2.9759001726
H        2.5769689560   -4.0695780775    0.7262091022
H        3.2820161839   -2.4404219842    0.8891334853
H        5.5407187209   -4.9204217541    2.3883069528
28   
torsion grid (45,)
C       -1.2022578339   -1.0503805727   -0.3249090480
C       -0.1930175117   -0.2676915431    0.2399898209
C       -1.2451860360   -2.4269076740   -0.0937375737
C        0.7611275373   -2.2582299269    1.2934003397
C        0.7755739712   -0.8753406368    1.0396429015
C       -0.2672554884   -3.0171127702    0.7079431172
C        6.3021225752   -2.9142502922    0.1083560750
C        7.3390628193   -3.4966223083    1.0583363570
C        5.9682983429   -3.1387068031    1.5658036169
C        3.8205741098   -3.8040520333    2.5452516786
C        2.8856514645   -3.2868171048    1.4593154903
N        5.0883652528   -4.2139413816    1.9555888087
O        1.6797138062   -2.8332378405    2.1188295677
Cl       2.0399061930    0.1015472190    1.7565082010
Cl      -0.3171405688   -4.7418878295    1.0028670786
H       -1.9609835553   -0.5845036150   -0.9466993632
H       -0.1538994145    0.8031218193    0.0686329145
H       -2.0273264392   -3.0419469368   -0.5267452936
H        6.4358600367   -1.8946113441   -0.2427943386
H        5.8445880379   -3.5974223473   -0.6005296345
H        7.5668660686   -4.5535670261    0.9483722806
H        8.1790233299   -2.8780913371    1.3592857023
H        5.9151343006   -2.2402406954    2.1882996505
H        3.9317882947   -3.0191863393    3.3126848500
H        3.3558093565   -4.6707457152    3.0248864021
H        2.6441537700   -4.0839716541    0.7482940050
H        3.3413918625   -2.4514107376    0.9173688947
H        5.5764149765   -4.9012857854    2.5188463026
28   
torsion grid (60,)
C       -1.1654195878   -1.0787930315   -0.3744024798
C       -0.1721587839   -0.2865004970    0.2052622876
C       -1.1984089247   -2.4554394120   -0.1423284786
C        0.7843338042   -2.2662392453    1.2748715514
C        0.7901527931   -0.8834293121    1.0204200478
C       -0.2273745918   -3.0359562775    0.6746585626
C        6.1707708697   -2.8374420568    0.1665751919
C        7.2728870246   -3.5673376996    0.9144983662
C        6.0061050805   -3.1787884478    1.6308643851
C        3.8334545168   -3.7847407347    2.5770526263
C        2.9174022158   -3.2706232808    1.4743243678
N        5.1025782535   -4.2378484575    2.0112789742
O        1.6952232953   -2.8325012605    2.1147374574
Cl       2.0340417444    0.1062574577    1.7554126703
Cl      -0.2647973092   -4.7609467110    0.9701200382
H       -1.9189588224   -0.6206562705   -1.0081558685
H       -0.1406427479    0.7844617268    0.0333883566
H       -1.9679093890   -3.0783160901   -0.5865950085
H        6.3290782572   -1.7980388200   -0.1071043792
H        5.5820370067   -3.4211150783   -0.5342156983
H        7.4068007234   -4.6212454553    0.6884421798
H        8.1846111213   -3.0289237144    1.1548303282
H        6.0881746017   -2.3392181234    2.3291785224
H        3.9544370180   -2.9883654602    3.3306064794
H        3.3437483149   -4.6315024858    3.0677151193
H        2.6963456324   -4.0677861854    0.7565835096
H        3.3724734457   -2.4275855420    0.9449501606
H        5.5692549782   -4.8861659356    2.6385261919
28   
torsion grid (75,)
C       -1.1550416743   -1.0948224639   -0.4176228808
C       -0.1761126650   -0.2950808273    0.1760487480
C       -1.1799480584   -2.4720249260   -0.1879078329
C        0.7821600909   -2.2684563940    1.2558663978
C        0.7800567388   -0.8852815524    1.0032167459
C       -0.2149990565   -3.0456236101    0.6411189218
C        6.0626857330   -2.7590158383    0.2615391812
C        7.1863624200   -3.6165631048    0.8058201780
C        6.0374269537   -3.2244869677    1.7016906810
C        3.8278361000   -3.7449308864    2.6044708037
C        2.9230485642   -3.2508337695    1.4839650833
N        5.0950784900   -4.2563999902    2.0693224428
O        1.6860147887   -2.8286438537    2.1073744953
Cl       2.0059928230    0.1135080550    1.7558877134
Cl      -0.2417632150   -4.7712420761    0.9335157060
H       -1.9038685886   -0.6419818471   -1.0606928095
H       -0.1511292711    0.7763401432    0.0059464385
H       -1.9383351369   -3.1005629119   -0.6431819981
H        6.2569638914   -1.7088391117    0.0635890713
H        5.3646084859   -3.2388043961   -0.4170713124
H        7.2192573639   -4.6521476354    0.4814885300
H        8.1539927931   -3.1562539705    0.9824086661
H        6.2459403100   -2.4567025377    2.4540381113
H        3.9638491837   -2.9272752179    3.3314410847
H        3.3138581002   -4.5620051041    3.1204430113
H        2.7227028107   -4.0566705946    0.7696469564
H        3.3684124944   -2.4029123258    0.9557351848
H        5.5233268544   -4.8602657513    2.7671836335
28   
torsion grid (90,)
C       -1.1221564265   -1.1487152788   -0.4248271812
C       -0.1593239998   -0.3338765178    0.1746341642
C       -1.1210523561   -2.5273585832   -0.2026122836
C        0.8347071723   -2.2945309364    1.2452999017
C        0.8066771722   -0.9102846201    1.0000726820
C       -0.1464794985   -3.0871523039    0.6246371281
C        6.0685165810   -2.6778719686    0.3405205739
C        7.1697111279   -3.6601543504    0.6623801395
C        6.1612275308   -3.2869725368    1.7249558890
C        3.9133278537   -3.6848787808    2.6007196209
C        2.9965174127   -3.2318400358    1.4727139851
N        5.1654240283   -4.2728463251    2.0911303460
O        1.7475810026   -2.8422074409    2.0953795431
Cl       2.0126573099    0.1074144075    1.7597142430
Cl      -0.1404851839   -4.8145211190    0.9070423603
H       -1.8785795952   -0.7066760242   -1.0665230593
H       -0.1544302852    0.7387353701    0.0103849306
H       -1.8666271466   -3.1677371769   -0.6625207867
H        6.3200660004   -1.6277854364    0.2243319915
H        5.2728338589   -3.0349844275   -0.3045997236
H        7.0809846381   -4.6574990616    0.2434562427
H        8.1854663742   -3.2897618288    0.7670860615
H        6.5051285129   -2.6119485321    2.5145784253
H        4.0812099063   -2.8351927616    3.2818777525
H        3.3811734488   -4.4572252824    3.1654007580
H        2.8196197954   -4.0534821483    0.7700858822
H        3.4085380182   -2.3749796621    0.9337270032
H        5.5452495251   -4.8299249396    2.8545319323
28   
torsion grid (105,)
C       -1.2905864282   -1.2894512890   -0.4446769893
C       -0.1738369615   -0.4956902363   -0.1738710780
C       -1.3930678078   -2.5748792712    0.0913497701
C        0.7685557270   -2.2885582512    1.1962486538
C        0.8416800078   -0.9993658261    0.6394991374
C       -0.3670190662   -3.0628870352    0.9015208827
C        6.3196671918   -2.3392469150    1.1314180484
C        7.1147359907   -3.5241951141    0.6322104924
C        6.2709107350   -3.6519142451    1.8824924041
C        3.8739706722   -3.7536187970    2.4390510940
C        2.8391093083   -3.4226524692    1.3718057786
N        5.0381860547   -4.4100506086    1.8093935437
O        1.7393039009   -2.7508399986    2.0320888466
Cl       2.2422124717   -0.0068197965    0.9882978426
Cl      -0.4896996215   -4.6736281432    1.5765942366
H       -2.0860926790   -0.9033388332   -1.0750906128
H       -0.0871070286    0.5052643272   -0.5838467899
H       -2.2580949411   -3.1975191007   -0.1124753736
H        6.8519925118   -1.5111595192    1.5895527367
H        5.4407199530   -2.0514904704    0.5642638742
H        6.7429912784   -4.0376894920   -0.2486348950
H        8.1959214685   -3.5052130866    0.7382464806
H        6.8053755699   -3.6630149098    2.8357701925
H        4.1601823345   -2.8316689073    2.9566815146
H        3.4083320652   -4.4101926896    3.1826187256
H        2.4767404853   -4.3351485111    0.8856755881
H        3.2681318803   -2.7646383714    0.6094344823
H        5.1788048288   -5.3062095111    2.2659554801
28   
torsion grid (120,)
C       -1.1823861184   -1.2709690353   -0.5210918189
C       -0.0363933342   -0.5152901336   -0.2637631922
C       -1.3428602278   -2.5327379041    0.0553232250
C        0.8174565449   -2.2987477781    1.1749516323
C        0.9491192737   -1.0326614843    0.5772797798
C       -0.3457802719   -3.0354860392    0.8923029806
C        6.2039479686   -2.2557427450    1.2524453226
C        6.8964120940   -3.3529254113    0.4772894779
C        6.2752813193   -3.6547903386    1.8262305654
C        3.8858437529   -3.7733218023    2.4917439250
C        2.8490588006   -3.4918274026    1.4115543027
N        5.0550242366   -4.4445135928    1.8897383410
O        1.7594335960   -2.7719259636    2.0369682233
Cl       2.3853891893   -0.0859868500    0.9099746490
Cl      -0.5403161102   -4.6174122332    1.6162148043
H       -1.9550021214   -0.8736041685   -1.1726224663
H        0.0955980272    0.4672366115   -0.7050200767
H       -2.2305609184   -3.1260734241   -0.1381547102
H        6.8095655800   -1.4858422755    1.7212127037
H        5.2491763470   -1.9011938272    0.8790841396
H        6.3735777696   -3.7584613111   -0.3832922209
H        7.9797813446   -3.3310101249    0.3941200691
H        6.9670952701   -3.7725214350    2.6617315855
H        4.1559633231   -2.8324384782    2.9836956494
H        3.4264875565   -4.4154857247    3.2512437897
H        2.4749933597   -4.4261683650    0.9787510220
H        3.2800010641   -2.8840020573    0.6095674489
H        5.2439562918   -5.2775882033    2.4369683736
28   
torsion grid (135,)
C       -1.1131975345   -1.3114704897   -0.5872922585
C        0.0271074903   -0.5534826355   -0.3123599295
C       -1.2927925833   -2.5619800076    0.0077202254
C        0.8368598344   -2.3120467452    1.1820440764
C        0.9876580721   -1.0575805426    0.5648991984
C       -0.3204353712   -3.0509454579    0.8811300146
C        6.0976785312   -2.2272806662    1.4100655631
C        6.5304778763   -3.2573097731    0.3847086840
C        6.2042821447   -3.6860789597    1.7994371652
C        3.8411474592   -3.8095702129    2.6187855912
C        2.8493963666   -3.5187730773    1.4979765838
N        5.0220029973   -4.4940357090    2.0771740965
O        1.7538681757   -2.7713104515    2.0782120395
Cl       2.4160460299   -0.1069651402    0.9193147212
Cl      -0.5397538218   -4.6181224639    1.6293037552
H       -1.8665378804   -0.9246295784   -1.2671026975
H        0.1737978364    0.4204864483   -0.7677241736
H       -2.1764451932   -3.1569179165   -0.1989353433
H        6.8415772449   -1.5426221203    1.8074414909
H        5.1147960285   -1.7840105857    1.2932306846
H        5.8037172173   -3.5345176228   -0.3734525295
H        7.5659729721   -3.2681289384    0.0548252818
H        7.0618722145   -3.9274773466    2.4254318544
H        4.0872265279   -2.8726821095    3.1346384530
H        3.3482483212   -4.4611777387    3.3476187938
H        2.4746822968   -4.4517906530    1.0635981066
H        3.3151602019   -2.9268927638    0.7030323904
H        5.2853904217   -5.2376741372    2.7124937781
28   
torsion grid (150,)
C       -1.0408459620   -1.3304671354   -0.6371436946
C        0.0880765271   -0.5635114005   -0.3408552114
C       -1.2207491874   -2.5837458927   -0.0480465213
C        0.8852543468   -2.3180444042    1.1637089139
C        1.0374466214   -1.0611943356    0.5521299692
C       -0.2600188567   -3.0665905768    0.8414934315
C        6.1234583944   -2.2300257619    1.4761136834
C        6.2766612088   -3.1986298717    0.3120283816
C        6.1786269375   -3.7233663542    1.7245308292
C        3.8530019456   -3.8190137035    2.6627300237
C        2.8994867283   -3.5111982215    1.5134342189
N        5.0428530483   -4.5205983244    2.1774569032
O        1.7900492992   -2.7713689907    2.0757066219
Cl       2.4522905710   -0.1006842731    0.9326920176
Cl      -0.4789512129   -4.6369571105    1.5828351123
H       -1.7852783138   -0.9484195734   -1.3293698606
H        0.2346228825    0.4124703087   -0.7919133158
H       -2.0957031633   -3.1854228555   -0.2714945083
H        6.9786332581   -1.6286339606    1.7722393813
H        5.1732633623   -1.7150152988    1.5703874182
H        5.4107459284   -3.3451175925   -0.3272465993
H        7.2325065088   -3.2547621254   -0.2019871471
H        7.1171910100   -4.0807389053    2.1413324762
H        4.0820610947   -2.8862910757    3.1974641437
H        3.3287679586   -4.4751397322    3.3645698560
H        2.5372308971   -4.4378382024    1.0557758283
H        3.3825881173   -2.9038868124    0.7413879228
H        5.3676360815   -5.1519123315    2.9001734798
28   
torsion grid (165,)
C        2.3048100495    2.8893261994    5.5875246001
C        1.3820439127    1.9783356796    6.1047607081
C        3.1284184363    2.5280181511    4.5205060674
C        2.1324997538    0.2923809081    4.4959869783
C        1.2955622742    0.6998569323    5.5531697570
C        3.0373485703    1.2420469742    3.9852762040
C        6.8315148698   -3.4462535445    6.5486841793
C        6.9403966329   -2.3005711710    5.5513552829
C        6.0220330301   -3.4643871984    5.2763567137
C        4.0956657091   -2.1302557789    4.5230627603
C        2.5782357983   -2.0488934367    4.6665915237
N        4.5743454344   -3.2835517668    5.3059211334
O        2.0214114925   -0.9391642592    3.9214028766
Cl       0.0839268881   -0.4064886398    6.1680870148
Cl       4.0621337612    0.8105229757    2.6342325801
H        2.3736341546    3.8873520263    6.0099241708
H        0.7210714729    2.2545817277    6.9197867730
H        3.8390394506    3.2321710001    4.1003071335
H        7.6631912625   -4.1384624047    6.6480827103
H        6.2809549457   -3.2469599762    7.4628453517
H        6.4998318743   -1.3546226965    5.8488215594
H        7.8405307185   -2.2077574992    4.9513775152
H        6.3853578247   -4.1395878964    4.4994985075
H        4.3667023200   -2.1740582631    3.4573748239
H        4.5378155265   -1.2179483318    4.9288868431
H        2.3056415792   -1.9811664920    5.7228290194
H        2.0906361122   -2.9318957734    4.2435870160
H        4.1681193348   -4.1017615227    4.8554700975
28   
torsion grid (180,)
C        2.3664432275    2.9033819675    5.5193535772
C        1.4729705299    2.0051035066    6.1056121335
C        3.1297163250    2.5181155705    4.4164693774
C        2.1327829994    0.2837588109    4.4945977498
C        1.3552719792    0.7153303786    5.5870493292
C        3.0083354157    1.2212172945    3.9147414940
C        6.8281750674   -3.6141267176    6.5079174995
C        6.8586383922   -2.2413471073    5.8521997456
C        6.0669563026   -3.3630760619    5.2306139853
C        4.0966093506   -2.1322486714    4.4850713092
C        2.5865230342   -2.0535344010    4.6933233978
N        4.6169950565   -3.2746507540    5.2567893384
O        1.9907420074   -0.9598019227    3.9538903070
Cl       0.1778592772   -0.3749616106    6.2909813803
Cl       3.9566343964    0.7599145466    2.5185155518
H        2.4590208292    3.9100025881    5.9160358916
H        0.8578996264    2.2997968902    6.9495935683
H        3.8164838717    3.2118855788    3.9427392654
H        7.7195991299   -4.2337799427    6.4657802800
H        6.2339406075   -3.7130950818    7.4107167015
H        6.3042635433   -1.4525826361    6.3515364670
H        7.7667115851   -1.9160579339    5.3541441676
H        6.5070591837   -3.7784440222    4.3200933852
H        4.3211556311   -2.1864692852    3.4089340750
H        4.5610349738   -1.2181551590    4.8627600318
H        2.3609308912   -1.9674928781    5.7591975203
H        2.0852873654   -2.9462924072    4.3090292347
H        4.2526722967   -4.1088181200    4.7979372598
