14   
torsion grid (-165,)
C        0.2631349768   -2.3917252935   -0.8577696518
C        0.1379054915   -2.0460091331    0.4697065667
C        0.4314076465   -0.7027031339    1.0893810448
N       -0.1021520460   -3.6814262974   -1.1461925153
N       -0.5064865842   -4.3717393766   -0.1484887235
N        2.8601409324   -0.7040842547    0.8953923047
N        1.6263329537   -0.1070385583    0.4918100818
S       -0.4533391685   -3.4114439368    1.3138192872
H        0.6269728796   -1.7430447445   -1.6449356441
H       -0.4114980842   -0.0303180229    0.8861088060
H        0.4972916698   -0.8023587970    2.1871869612
H        2.8057451505   -1.0456838291    1.8604637223
H        3.0230544075   -1.5113073491    0.2968312618
H        1.6769703444    0.8791904331    0.7325777328
14   
torsion grid (-150,)
C        0.3774995068   -2.4369652671   -0.7958275596
C        0.1009287841   -2.0489074578    0.4960902894
C        0.4326968439   -0.7259571597    1.1390814161
N       -0.0568596151   -3.6986136874   -1.1154379000
N       -0.6510909089   -4.3278174035   -0.1764715562
N        2.8469215459   -0.6502862261    0.8125332079
N        1.5737119158   -0.0950920653    0.4771072899
S       -0.7141508404   -3.3392079137    1.2711819553
H        0.8879979740   -1.8343872823   -1.5365434981
H       -0.4291332799   -0.0550141783    1.0347183089
H        0.5961129104   -0.8696809440    2.2219025685
H        2.8550130623   -0.9933454036    1.7785506409
H        3.0067137539   -1.4522767052    0.2063265808
H        1.6063347225    0.8928921594    0.7120729467
14   
torsion grid (-135,)
C        0.4719956815   -2.4938564634   -0.7491286232
C        0.0661039017   -2.0537447196    0.4903623377
C        0.4369836609   -0.7594214057    1.1696495176
N       -0.0120516882   -3.7292433534   -1.1010185618
N       -0.7600335685   -4.2921972101   -0.2340229752
N        2.8329048904   -0.5880708773    0.7448350910
N        1.5256176979   -0.0833048175    0.4641054641
S       -0.9276836348   -3.2662976024    1.1806853654
H        1.0967295753   -1.9410836323   -1.4391936824
H       -0.4330352527   -0.0919114827    1.1736654223
H        0.6978436890   -0.9629378492    2.2234363939
H        2.8932331510   -0.9358867071    1.7073128524
H        3.0047607090   -1.3792901606    0.1282025458
H        1.5306571742    0.9039342197    0.7029207951
14   
torsion grid (-120,)
C        0.5433900324   -2.5710249738   -0.6979197423
C        0.0348537278   -2.0585175435    0.4737071623
C        0.4511578683   -0.7982626267    1.1909532819
N        0.0021688751   -3.7742382756   -1.0774783412
N       -0.8813263987   -4.2499650322   -0.2898703748
N        2.8249894471   -0.5175489968    0.6890669992
N        1.4872142600   -0.0727086048    0.4537873340
S       -1.1239175256   -3.1703669923    1.0729670949
H        1.2734895224   -2.0887081565   -1.3349285312
H       -0.4164799860   -0.1392112627    1.3081380459
H        0.8049424730   -1.0659680489    2.2024242327
H        2.9323185978   -0.8714676474    1.6450993874
H        3.0206383061   -1.2913734685    0.0581923161
H        1.4572900507    0.9126497049    0.6973380549
14   
torsion grid (-105,)
C        0.9312834051   -3.0305245376    0.0569672497
C        0.1241750204   -1.9188071503    0.1590015326
C        0.5070522218   -0.5196790515    0.6055115739
N        0.2939585598   -4.1712019310   -0.3639560363
N       -0.9539686341   -4.0396426607   -0.6015352676
N        2.4516637356   -0.2040235540   -0.7290036435
N        1.9311851344   -0.2231288357    0.6034405595
S       -1.4566403799   -2.3892576131   -0.3062843935
H        1.9909398780   -3.0826231135    0.2802423764
H        0.0234586903    0.2156064547   -0.0423379393
H        0.1267260302   -0.3567604222    1.6214635444
H        3.2536483990    0.4211305224   -0.7376459381
H        2.7532214072   -1.1266851224   -1.0473395664
H        2.4340219570   -0.8709163982    1.2123094030
14   
torsion grid (-90,)
C        0.9035677857   -3.0462385184    0.1969137089
C        0.1477661955   -1.8941073171    0.1645628835
C        0.5301318942   -0.5126632412    0.6662927096
N        0.2892047281   -4.1563686757   -0.3249904745
N       -0.8958563137   -3.9627522700   -0.7650005740
N        2.3786929817   -0.1802740808   -0.7862992741
N        1.9480659774   -0.1914240086    0.5786290382
S       -1.3532156944   -2.2897157390   -0.5569906011
H        1.9085099809   -3.1474940429    0.5917859183
H       -0.0123018620    0.2488202835    0.1016602446
H        0.2279354158   -0.4208028611    1.7166074161
H        3.1849192756    0.4361243565   -0.8500989107
H        2.6488241469   -1.1089205958   -1.1167639440
H        2.4942390480   -0.8368113767    1.1521317410
14   
torsion grid (-75,)
C        0.8531394042   -3.0940964481    0.3527728973
C        0.1823752477   -1.9016774405    0.1787641371
C        0.5651778192   -0.5342225769    0.7182901174
N        0.2899528365   -4.1722101353   -0.2795210709
N       -0.7770885849   -3.9139732280   -0.9402642938
N        2.2961601120   -0.1445923811   -0.8556152868
N        1.9686785463   -0.1780241145    0.5383563717
S       -1.1673870627   -2.2206511967   -0.8220685473
H        1.7556835812   -3.2453639128    0.9352163507
H       -0.0329236809    0.2385345284    0.2313981134
H        0.3406960044   -0.4961670359    1.7906322540
H        3.0862306627    0.4851381838   -0.9711960564
H        2.5584407005   -1.0664588502   -1.2113849516
H        2.5629223605   -0.8303388991    1.0535074496
14   
torsion grid (-60,)
C        0.7634393319   -3.1462850741    0.5043146452
C        0.2261336150   -1.9143326077    0.1918099799
C        0.6162928029   -0.5645460980    0.7647670798
N        0.2829771854   -4.1924336637   -0.2382721835
N       -0.5935177142   -3.8701250434   -1.1186120637
N        2.2248428781   -0.0590882396   -0.9050233405
N        2.0018037909   -0.1764656241    0.5057653739
S       -0.8838539872   -2.1573086157   -1.0865464171
H        1.5007609267   -3.3465436222    1.2746174002
H       -0.0223382264    0.2176661129    0.3502733181
H        0.4570392708   -0.5722603323    1.8487665300
H        2.9859188887    0.6016315990   -1.0410788814
H        2.4916368296   -0.9516266704   -1.3261450045
H        2.6328950133   -0.8595135024    0.9291641403
14   
torsion grid (-45,)
C        0.6170122987   -3.2006912490    0.6451968802
C        0.2522855528   -1.9427107252    0.2110570705
C        0.6659757272   -0.6101280577    0.7993358351
N        0.2015954931   -4.2322427498   -0.1548700662
N       -0.4599724313   -3.8733398849   -1.1946962052
N        2.1436040954    0.0134955800   -0.9560565981
N        2.0288128687   -0.1997460347    0.4563813024
S       -0.6084435332   -2.1432041221   -1.2550844427
H        1.1721296442   -3.4269727584    1.5494388165
H       -0.0040571752    0.1806592688    0.4567754548
H        0.5793752522   -0.6560888659    1.8901832988
H        2.8665072306    0.7139242308   -1.1022712195
H        2.4145329477   -0.8375997132   -1.4526399166
H        2.6880903501   -0.9092472701    0.7814324154
14   
torsion grid (-30,)
C        0.4860350069   -3.2286946190    0.7355637369
C        0.3053412039   -1.9659775729    0.2115572859
C        0.7287529193   -0.6486885819    0.8201126448
N        0.1041641841   -4.2573633476   -0.0861010534
N       -0.3619981600   -3.8913013871   -1.2235504658
N        2.0958387030    0.0876452401   -0.9867430342
N        2.0639347677   -0.1992340451    0.4168104678
S       -0.3503573620   -2.1569446000   -1.3605765124
H        0.8788741862   -3.4582070200    1.7202482400
H        0.0270053101    0.1423869028    0.5484020761
H        0.7121417450   -0.7403341107    1.9111956399
H        2.7664783600    0.8388681510   -1.1312049414
H        2.3939175159   -0.7189068629   -1.5382116605
H        2.7512118303   -0.9117738955    0.6676573518
14   
torsion grid (-15,)
C        0.3563631847   -3.2523765639    0.7872582384
C        0.3625985010   -2.0055356544    0.2006400161
C        0.7842686624   -0.6979292517    0.8273192235
N       -0.0208177151   -4.2806004609   -0.0386857011
N       -0.3147176156   -3.9266578227   -1.2350431735
N        2.0480111957    0.1299675952   -1.0201488855
N        2.0837680861   -0.1897130305    0.3765482843
S       -0.1321629133   -2.2064186157   -1.4300973696
H        0.6104365574   -3.4701357327    1.8189061289
H        0.0439833629    0.0792293910    0.6246281483
H        0.8388221919   -0.8319601658    1.9126965188
H        2.6419264278    0.9435216970   -1.1645115720
H        2.4057306351   -0.6320417199   -1.5980151360
H        2.8075235617   -0.8798255410    0.5814997188
14   
torsion grid (0,)
C        0.2360728066   -3.2465693521    0.8176128275
C        0.4300886353   -2.0338385123    0.1945782594
C        0.8466161467   -0.7325242330    0.8374164433
N       -0.1497584048   -4.2709849617   -0.0104085189
N       -0.2814941557   -3.9418265181   -1.2417120870
N        2.0058817310    0.1705099727   -1.0478943505
N        2.1013168672   -0.1549795371    0.3454584511
S        0.0761995340   -2.2540022305   -1.4715743111
H        0.3622162128   -3.4436170698    1.8765551705
H        0.0645251862    0.0193681981    0.7052413059
H        0.9758991771   -0.9035533286    1.9112719631
H        2.5044373406    1.0457293225   -1.1942956975
H        2.4395220873   -0.5414389401   -1.6367679209
H        2.8674675496   -0.8053167071    0.5214829425
14   
torsion grid (15,)
C       -0.6998683104   -2.5400465324    0.0236980213
C        0.4898667738   -1.8751165652   -0.1575374210
C        0.8445159429   -0.4658547175    0.2235404139
N       -0.7161356465   -3.8275679876   -0.4541316696
N        0.3821015652   -4.2137317711   -0.9881677539
N        2.3870187861   -0.9342609900    2.0555919503
N        2.2084683096   -0.3837490473    0.7490612113
S        1.5757357170   -2.9478968129   -0.9386173885
H       -1.5899412306   -2.1413482765    0.4972826738
H        0.7989495040    0.1729705409   -0.6672335708
H        0.0822017900   -0.0925908933    0.9305311850
H        1.5387425628   -0.8261283525    2.6202376024
H        2.5596683810   -1.9322135321    1.9522181188
H        2.5051067021    0.5875178183    0.7897925634
14   
torsion grid (30,)
C       -0.7588209166   -2.5252899655   -0.0933227719
C        0.4687283085   -1.9057459878   -0.0983813144
C        0.8145490238   -0.4952381500    0.2902890281
N       -0.7524922323   -3.8138297006   -0.5682676320
N        0.3967371675   -4.2408261946   -0.9411620217
N        2.4852482637   -0.8959702826    2.0252583007
N        2.2102087628   -0.3863726709    0.7187188251
S        1.6126416946   -3.0155831344   -0.7304036029
H       -1.6930982793   -2.0944354150    0.2488489384
H        0.6840908601    0.1590467455   -0.5803565531
H        0.1060438216   -0.1580351439    1.0676015396
H        1.6764441359   -0.7805041592    2.6436445392
H        2.6666091950   -1.8940554101    1.9414457482
H        2.5003927439    0.5874353302    0.7106013366
14   
torsion grid (45,)
C       -0.7997197638   -2.5062268380   -0.2139369270
C        0.4402204844   -1.9353157806   -0.0429227225
C        0.7808193160   -0.5266008587    0.3638630916
N       -0.7771775819   -3.7985275519   -0.6760997445
N        0.3962020370   -4.2734566691   -0.8801435448
N        2.5757157276   -0.8489208458    1.9909305592
N        2.2017687462   -0.3874821809    0.6909191988
S        1.6147299073   -3.0913316030   -0.5137886371
H       -1.7559758775   -2.0361214357   -0.0130281948
H        0.5600960405    0.1493740634   -0.4704454145
H        0.1375510856   -0.2353915016    1.2130316982
H        1.8098133457   -0.7267994616    2.6604649026
H        2.7744982364   -1.8451056714    1.9294005213
H        2.4760774003    0.5889691027    0.6324057198
14   
torsion grid (60,)
C       -0.8149724502   -2.4649922755   -0.3598898968
C        0.4134984058   -1.9575476741   -0.0002326792
C        0.7461445400   -0.5557722287    0.4440486000
N       -0.7953865539   -3.7682748771   -0.7862983110
N        0.3643310271   -4.3148506674   -0.7897486840
N        2.6635255312   -0.8000870763    1.9430188386
N        2.1808177896   -0.3644212360    0.6699360894
S        1.5750345625   -3.1895303142   -0.2558613355
H       -1.7608092605   -1.9354114823   -0.3302574282
H        0.4287552198    0.1455931716   -0.3354088467
H        0.1668471192   -0.3278160004    1.3566404817
H        1.9384167591   -0.7192586493    2.6621975187
H        2.9210864675   -1.7817714938    1.8711868741
H        2.4103020965    0.6219537872    0.5908499890
14   
torsion grid (75,)
C       -0.7799416332   -2.4356158229   -0.5214770581
C        0.3954867694   -1.9952671717    0.0457936570
C        0.7002856407   -0.5972651938    0.5226879319
N       -0.7958970829   -3.7658545317   -0.8530050461
N        0.2817082661   -4.4027149287   -0.5880091541
N        2.7503586643   -0.7849295624    1.8399211106
N        2.1297027530   -0.3095170842    0.6433219312
S        1.4572861084   -3.3351012180    0.1327258573
H       -1.6568798670   -1.8311209412   -0.7249038536
H        0.2794611363    0.1082226347   -0.2019064483
H        0.1661125366   -0.4326800955    1.4769719769
H        2.0781315921   -0.8562726360    2.6091183139
H        3.1316304479   -1.7115286855    1.6643624804
H        2.2673587798    0.6971216161    0.6246848390
14   
torsion grid (90,)
C       -0.7015589946   -2.4074739195   -0.6653909176
C        0.3712874690   -2.0105169265    0.1002520299
C        0.6471973658   -0.6166238455    0.6010376081
N       -0.7496506989   -3.7511613708   -0.9386604000
N        0.2031453632   -4.4405196661   -0.4400524283
N        2.8066147051   -0.7966039472    1.7279796037
N        2.0676745636   -0.2646471907    0.6283335371
S        1.2896931826   -3.4108486812    0.4651891819
H       -1.4755642967   -1.7602257315   -1.0621704563
H        0.1487982392    0.0861377942   -0.0751887367
H        0.1643460319   -0.4992280139    1.5894382053
H        2.2105083724   -0.9634626289    2.5436180605
H        3.2249933525   -1.6798638854    1.4460009545
H        2.1535063716    0.7469216156    0.6815042790
14   
torsion grid (105,)
C       -0.6154187344   -2.3857119671   -0.7598326293
C        0.3334551191   -2.0171692185    0.1658672524
C        0.6033965426   -0.6278577803    0.6786689263
N       -0.6771018897   -3.7318078203   -1.0195346060
N        0.1490269232   -4.4495146521   -0.3614973414
N        2.8471444142   -0.7985547907    1.6298736679
N        2.0182050511   -0.2494732088    0.6069840201
S        1.1194478250   -3.4462191559    0.6954896336
H       -1.2871893648   -1.7154493012   -1.2838776627
H        0.0436286607    0.0752302877    0.0530031515
H        0.1953380467   -0.5391274729    1.7024057445
H        2.3250053924   -0.9751086128    2.4931902875
H        3.2349952304   -1.6790128202    1.2994776217
H        2.0915121183    0.7619274990    0.6815455177
14   
torsion grid (120,)
C       -0.5184118361   -2.3670053410   -0.8271457909
C        0.2877784685   -2.0195221468    0.2321380301
C        0.5611594327   -0.6341594395    0.7524785531
N       -0.5874091465   -3.7131021679   -1.0819664042
N        0.1022647396   -4.4506686236   -0.2997184897
N        2.8735021648   -0.7981708621    1.5270324903
N        1.9650280385   -0.2394866241    0.5809038493
S        0.9374755881   -3.4662814757    0.8836568422
H       -1.0786745515   -1.6806697852   -1.4517323141
H       -0.0508697259    0.0702889473    0.1799616598
H        0.2346346776   -0.5675219472    1.8059170827
H        2.4248351813   -0.9731372690    2.4313985398
H        3.2184684229   -1.6830631532    1.1626662993
H        2.0359610950    0.7713885367    0.6643767971
14   
torsion grid (135,)
C       -0.4046624482   -2.3547811887   -0.8808151606
C        0.2344510055   -2.0178561487    0.2906040790
C        0.5134247378   -0.6360563969    0.8175940100
N       -0.4875530258   -3.7009797287   -1.1246936380
N        0.0405598298   -4.4490716990   -0.2318684461
N        2.8793912827   -0.8073645700    1.4092441996
N        1.8995299389   -0.2221931287    0.5543241459
S        0.7178136092   -3.4749453979    1.0519533778
H       -0.8290662915   -1.6590396561   -1.5955699086
H       -0.1436609710    0.0697245586    0.2991975306
H        0.2633873467   -0.5901044948    1.8920808330
H        2.5037947554   -0.9979295441    2.3438308664
H        3.1744009472   -1.6911835310    1.0007885933
H        1.9704677580    0.7856294045    0.6702469334
14   
torsion grid (150,)
C       -0.2443738614   -2.3530209812   -0.9125914637
C        0.2004328644   -2.0194083737    0.3469405547
C        0.4699594287   -0.6410177455    0.8904713853
N       -0.3542158259   -3.6983818549   -1.1452692598
N       -0.0258127140   -4.4494693493   -0.1614660379
N        2.8774331313   -0.8092741589    1.2757496806
N        1.8239108224   -0.1853557748    0.5433439675
S        0.4711861726   -3.4789465068    1.2008290728
H       -0.4977380149   -1.6544002378   -1.7016588532
H       -0.2369900771    0.0596228567    0.4336657356
H        0.2881465536   -0.6271686170    1.9790879383
H        2.5820720137   -1.0554172660    2.2262723975
H        3.1282415706   -1.6704718207    0.7952623771
H        1.8925160707    0.8141232002    0.7188986289
14   
torsion grid (165,)
C       -0.0577461139   -2.3485535878   -0.9233936957
C        0.1807839165   -2.0210778854    0.3929132218
C        0.4444680153   -0.6505917942    0.9626290902
N       -0.2352599798   -3.6862568915   -1.1574384042
N       -0.1522442518   -4.4359003724   -0.1214174462
N        2.8740224254   -0.8071798236    1.1306296675
N        1.7557137179   -0.1489256651    0.5347745617
S        0.1714080182   -3.4744637619    1.2962391153
H       -0.0993857827   -1.6513113458   -1.7519343183
H       -0.3116113877    0.0431176131    0.5778443690
H        0.3304540387   -0.6747821938    2.0602409308
H        2.6602880992   -1.1185176161    2.0838997295
H        3.0779846689   -1.6356753022    0.5755470308
H        1.8311364990    0.8379090173    0.7693099815
14   
torsion grid (180,)
C        0.1151579836   -2.3655175116   -0.8953733390
C        0.1619968979   -2.0336664504    0.4407925038
C        0.4293347906   -0.6724844481    1.0325364319
N       -0.1558993952   -3.6849236190   -1.1460022708
N       -0.3271876607   -4.4135742007   -0.1064973741
N        2.8648565628   -0.7596322193    0.9990812612
N        1.6829808979   -0.1199574462    0.5136840769
S       -0.1493163884   -3.4548173648    1.3403626679
H        0.2891680931   -1.6861455999   -1.7210511712
H       -0.3778708304    0.0066384329    0.7325932589
H        0.4005223297   -0.7308670352    2.1346411935
H        2.7366316646   -1.0957695949    1.9591669299
H        3.0378259766   -1.5731314084    0.4119339199
H        1.7512278139    0.8635332701    0.7630396443
