21   
torsion grid (-165,)
C        0.6592756964   -0.7424676086    1.4447976601
C        0.9474666295    0.7300466937    1.1148847221
C        0.0625824458    1.3577075953    0.0179971581
H        0.5611355119    2.2915433261   -0.2849400183
C        0.0281172461    0.4716903421   -1.2469428762
C       -1.3401207187    1.7600862587    0.4570750972
C       -2.1985861741    2.4058740467   -0.6090246853
C       -1.8148702566    1.6025569896    1.7014792052
H        1.2734283292   -1.0723124374    2.2897638193
H        0.8924390497   -1.3951514998    0.5979305518
H       -0.3896185506   -0.9070240800    1.7085480840
H        0.8820245054    1.3381680366    2.0235788489
H        1.9901898836    0.8070142345    0.7811923605
H       -0.3898325730    1.0070531972   -2.1037451169
H        1.0419400834    0.1574630934   -1.5185621416
H       -0.5736327894   -0.4288834465   -1.0890454477
H       -2.4980044337    1.6831764044   -1.3766625108
H       -1.6523084872    3.2067401521   -1.1233812766
H       -3.1086123055    2.8339800520   -0.1803003607
H       -2.8168722410    1.9353835428    1.9633100032
H       -1.2384307908    1.1452071758    2.4988036042
21   
torsion grid (-150,)
C        0.5583271622   -0.5345832751    2.0625360533
C        0.1340149746    0.9317648616    1.8951512704
C       -0.3016118040    1.3849602395    0.4705955594
H       -0.0437697627    2.4470319671    0.3910131392
C        0.4892708437    0.6790602842   -0.6492683593
C       -1.8011716888    1.2788226542    0.2455281244
C       -2.4520485297   -0.0764651088    0.3964936491
C       -2.5246419413    2.3613295277   -0.0758196714
H        0.8088174053   -0.7357525303    3.1098989554
H        1.4435949757   -0.7684207453    1.4637087976
H       -0.2302766231   -1.2359841504    1.7735797741
H       -0.6713653020    1.1676731056    2.6005022896
H        0.9840489885    1.5572020047    2.1954932638
H        0.2204330547    1.0997590239   -1.6233606872
H        1.5674348662    0.8153527814   -0.5072381083
H        0.2951798468   -0.3968079866   -0.6844812738
H       -2.3771967810   -0.4367976051    1.4290561046
H       -1.9705716995   -0.8291162354   -0.2379850006
H       -3.5121476625   -0.0373408277    0.1315725270
H       -3.5970292719    2.3020121600   -0.2502969242
H       -2.0664702774    3.3433589706   -0.1747773671
21   
torsion grid (-135,)
C        0.8783425689   -0.4541341326    2.1765343847
C        0.2032373602    0.9091599526    1.9736130059
C       -0.1438606508    1.3239081111    0.5047090319
H        0.1677253812    2.3668067488    0.3830216199
C        0.6505449518    0.5426561744   -0.5630804793
C       -1.6373330133    1.2545230126    0.2415692768
C       -2.2914870009   -0.1050144026    0.3222838654
C       -2.3460203626    2.3568283460   -0.0413940387
H        1.0615454352   -0.6264635590    3.2428346253
H        1.8425407206   -0.5123211113    1.6632380848
H        0.2592357242   -1.2816398177    1.8131784109
H       -0.7071176764    0.9586992798    2.5809194611
H        0.8701670130    1.6743463442    2.3884701558
H        0.3845430588    0.9022780452   -1.5624825382
H        1.7280743790    0.6876372732   -0.4311040719
H        0.4564897762   -0.5329771887   -0.5314347610
H       -2.1146712483   -0.5736650489    1.2976810734
H       -1.8860566630   -0.7871456728   -0.4339071663
H       -3.3720367532   -0.0368614170    0.1703840896
H       -3.4178040687    2.3168883752   -0.2249336947
H       -1.8751525855    3.3361278560   -0.0985928806
21   
torsion grid (-120,)
C        0.6936399696   -0.2252877311    2.2544017271
C       -0.1823227084    1.0126759236    2.0201215066
C       -0.5006497433    1.3995215604    0.5322961401
H       -0.1066962248    2.4078264465    0.3670358662
C        0.1735472738    0.4991322285   -0.5215844097
C       -2.0023955919    1.4734726036    0.3111475843
C       -2.7656921128    0.1694492448    0.3300077232
C       -2.6222886720    2.6463511035    0.1181755123
H        0.8448698779   -0.3784350053    3.3286444672
H        1.6819526110   -0.1245695731    1.7950411966
H        0.2334358711   -1.1353636250    1.8557613869
H       -1.1245678833    0.8777038759    2.5618507552
H        0.2999843241    1.8731982714    2.4968351959
H       -0.0997903250    0.8348638503   -1.5275380109
H        1.2638388218    0.5448906452   -0.4401955893
H       -0.1203963233   -0.5501597401   -0.4288311277
H       -2.5276861617   -0.4213379488    1.2228245678
H       -2.5069186578   -0.4507791218   -0.5360844528
H       -3.8456891003    0.3383548060    0.3115731895
H       -3.6995558409    2.7085944772   -0.0219887114
H       -2.0701753141    3.5837312623    0.0943903765
21   
torsion grid (-105,)
C        0.6725010987   -0.1743952137    2.0928474807
C       -0.3993620983    0.9060826372    1.8977954803
C       -0.7142277491    1.3312187850    0.4243509327
H       -0.2530646189    2.3116660309    0.2617515118
C       -0.1779052020    0.3723566604   -0.6519367879
C       -2.2117348468    1.5613955117    0.2648598187
C       -3.1027626324    0.3422462992    0.2026488175
C       -2.7187330383    2.8004090319    0.1915129746
H        0.8083711311   -0.3807719328    3.1602053848
H        1.6454001086    0.1316252722    1.6924245760
H        0.3949343183   -1.1152822349    1.6083014577
H       -1.3213404796    0.5467975615    2.3687793647
H       -0.1209448142    1.8042189319    2.4590448785
H       -0.4511951679    0.7355723346   -1.6483500186
H        0.9126299721    0.2989393588   -0.6105698382
H       -0.5810098203   -0.6393689966   -0.5441354276
H       -2.8918860425   -0.3556790564    1.0216400246
H       -2.9457078061   -0.2115842881   -0.7303455059
H       -4.1592878449    0.6184032742    0.2549425399
H       -3.7885609368    2.9778113230    0.1023452474
H       -2.0778573036    3.6795333508    0.2189073139
21   
torsion grid (-90,)
C        1.1756763450   -0.0064975354    1.9321636720
C       -0.0722631986    0.8656196398    1.7449378885
C       -0.3618376209    1.3348075188    0.2890295309
H        0.1536414404    2.2920749249    0.1466459094
C        0.1114158933    0.3539212363   -0.7948437721
C       -1.8447990182    1.6594008056    0.1442080434
C       -2.8101169462    0.5034742100    0.0165809764
C       -2.2761265906    2.9289132358    0.1397501291
H        1.3195434472   -0.2416330193    2.9924397762
H        2.0837992236    0.4979360222    1.5812465904
H        1.0920963151   -0.9543048826    1.3924478988
H       -0.9336167695    0.2961955843    2.1147880427
H       -0.0108402581    1.7541524957    2.3821658364
H       -0.1727752115    0.7175322548   -1.7880365359
H        1.1990624305    0.2406814744   -0.7794637851
H       -0.3263215440   -0.6416051386   -0.6648978208
H       -2.6602367927   -0.2408442873    0.8073056794
H       -2.6730976370   -0.0195124280   -0.9371553784
H       -3.8472010560    0.8459639066    0.0655182070
H       -3.3331517416    3.1753326357    0.0632991872
H       -1.5834443572    3.7652022724    0.2130071625
21   
torsion grid (-75,)
C        1.3227270151    0.1338346098    1.9217523714
C       -0.0681263625    0.7445468339    1.7103685421
C       -0.3394204725    1.2677068303    0.2773855224
H        0.2128341340    2.2096048562    0.1681784953
C        0.1245986840    0.2972092342   -0.8211271445
C       -1.8108533402    1.6334763172    0.1228814507
C       -2.8097341868    0.5073425848   -0.0134453616
C       -2.2045309426    2.9151783008    0.1129031335
H        1.4743830771   -0.1213207738    2.9761826271
H        2.1173205592    0.8325778919    1.6330377403
H        1.4569043687   -0.7821924569    1.3388929015
H       -0.8181283879   -0.0140196547    1.9672390526
H       -0.2242491724    1.5738397087    2.4091307384
H       -0.1716357641    0.6634472800   -1.8097494230
H        1.2128300229    0.1888721218   -0.8187421552
H       -0.3075691470   -0.7009716875   -0.6881885836
H       -2.7172754723   -0.2189720403    0.8021382122
H       -2.6551326207   -0.0461548969   -0.9470167656
H       -3.8351038452    0.8866368235   -0.0138282118
H       -3.2528502066    3.1923655521    0.0231739004
H       -1.4886494171    3.7308559013    0.1949043569
21   
torsion grid (-60,)
C        1.3323703075    0.2334121195    1.9461095604
C       -0.1353406101    0.5751051651    1.6616540095
C       -0.3808298486    1.1928709309    0.2662773119
H        0.2072409294    2.1183105382    0.2155561942
C        0.0887985167    0.2698723377   -0.8735442759
C       -1.8376119569    1.5989289744    0.0957257984
C       -2.8747825269    0.5018141979    0.0285311936
C       -2.1867133390    2.8905701649    0.0086158459
H        1.4586727902   -0.1030352314    2.9807919087
H        1.9785428657    1.1073180859    1.7998361750
H        1.6995973173   -0.5653938660    1.2945445973
H       -0.7389111091   -0.3346145033    1.7713593111
H       -0.4996700305    1.2811585052    2.4171951999
H       -0.1849526199    0.6867618566   -1.8483279869
H        1.1754690923    0.1460236567   -0.8579449002
H       -0.3585330370   -0.7273856488   -0.7941178643
H       -2.8580955183   -0.1231236025    0.9288222456
H       -2.6940857816   -0.1647762850   -0.8226889403
H       -3.8812837114    0.9157770784   -0.0756765430
H       -3.2244127728    3.1968502049   -0.1068059469
H       -1.4441183426    3.6850087423    0.0503380704
21   
torsion grid (-45,)
C        1.3098794360    0.3768322422    1.9490484785
C       -0.1783721270    0.4570925517    1.5883700644
C       -0.4491940044    1.1483866022    0.2316960831
H        0.1736383451    2.0512641465    0.1952569630
C       -0.0284856130    0.2572968684   -0.9538320805
C       -1.8964299860    1.5951366216    0.1082939708
C       -2.9657129396    0.5284155017    0.1506508378
C       -2.2099185897    2.8915211956   -0.0281291226
H        1.4500782125   -0.0865181745    2.9315952352
H        1.7582095551    1.3764560740    1.9851860744
H        1.8763511990   -0.2160670974    1.2234562689
H       -0.6094646622   -0.5518821611    1.5809182963
H       -0.7028340337    1.0133249903    2.3749271010
H       -0.2429962212    0.7505178585   -1.9074480236
H        1.0441647636    0.0423477300   -0.9224603791
H       -0.5570972244   -0.7021869444   -0.9420954950
H       -2.9241480957   -0.0393939072    1.0874879145
H       -2.8412375356   -0.1949147755   -0.6635046106
H       -3.9643099419    0.9649337626    0.0639122900
H       -3.2420806563    3.2247787882   -0.1149082994
H       -1.4424314312    3.6623997642   -0.0579811323
21   
torsion grid (-30,)
C        1.1713150931    0.5194859860    2.0314725029
C       -0.2923511251    0.4377729536    1.5821507680
C       -0.5503100552    1.1680659668    0.2384875143
H        0.1655144888    1.9965905659    0.1715489339
C       -0.2517804236    0.2391932489   -0.9559345695
C       -1.9483425028    1.7532455464    0.1638028919
C       -3.1094562297    0.7890732420    0.2344620651
C       -2.1417222091    3.0749750183    0.0494385172
H        1.3308019955   -0.0287565369    2.9663313492
H        1.4677997495    1.5608862801    2.1992061532
H        1.8500084379    0.0972350859    1.2815863773
H       -0.6031089918   -0.6111578449    1.5014198882
H       -0.9183950443    0.8869062579    2.3625140303
H       -0.3819537039    0.7660750747   -1.9069496420
H        0.7797576582   -0.1267519934   -0.9117077948
H       -0.9103300022   -0.6358827960   -0.9593856251
H       -3.0563771164    0.1687757354    1.1369744770
H       -3.1101804657    0.1031711755   -0.6206509821
H       -4.0659260457    1.3185819504    0.2416988135
H       -3.1399668082    3.5054842672    0.0034675503
H       -1.3056695706    3.7694780453   -0.0027271315
21   
torsion grid (-15,)
C        1.2068782272    0.5777532316    2.1722654143
C       -0.1639033642    0.2777943654    1.5549817907
C       -0.3869970712    1.0261864296    0.2082108628
H        0.3768963328    1.8092669683    0.1354674660
C       -0.1460824374    0.0819201745   -0.9861748789
C       -1.7457110501    1.6974711065    0.1428811101
C       -2.9610455295    0.7999444116    0.1305871474
C       -1.8595752279    3.0329832824    0.1095036389
H        1.3582206818    0.0180040310    3.1018369174
H        1.3024653306    1.6445498910    2.4029412007
H        2.0207257146    0.3111456317    1.4873903863
H       -0.2801001560   -0.8025376005    1.4070638606
H       -0.9364024991    0.5740119120    2.2738303784
H       -0.2442757230    0.6133482684   -1.9388166667
H        0.8634517202   -0.3418330565   -0.9369712557
H       -0.8527740773   -0.7546633664   -0.9883481305
H       -2.9354756632    0.0826105280    0.9595483836
H       -3.0092120159    0.2121509789   -0.7935448576
H       -3.8850483147    1.3790768126    0.2089151131
H       -2.8300429257    3.5241364028    0.0791347663
H       -0.9834446919    3.6782049929    0.1105508690
21   
torsion grid (0,)
C        1.0232830487    0.8141396550    1.9926301895
C       -0.1735489924    0.2299121368    1.2341860657
C       -0.4423727419    0.9643233245   -0.1156610852
H        0.3100550303    1.7549630778   -0.2156769809
C       -0.2641809186    0.0160194233   -1.3145899921
C       -1.7978585250    1.6501384297   -0.1184570980
C       -3.0226880619    0.7676569725   -0.1800157737
C       -1.8992484979    2.9857349286   -0.0547532110
H        1.1971266172    0.2848847730    2.9361454922
H        0.8565695121    1.8716747088    2.2269378876
H        1.9405449958    0.7453141397    1.3960611552
H       -0.0011828652   -0.8371050682    1.0486177542
H       -1.0592933144    0.2875208518    1.8759479756
H       -0.4356087912    0.5363491180   -2.2632266108
H        0.7540492014   -0.3887672087   -1.3285583481
H       -0.9538682479   -0.8332088288   -1.2629774650
H       -2.9865166145   -0.0228657709    0.5790894064
H       -3.0979259264    0.2666460345   -1.1522620681
H       -3.9384457189    1.3451938150   -0.0278503675
H       -2.8651399767    3.4862136540   -0.0315634337
H       -1.0170397273    3.6219136211   -0.0248556630
21   
torsion grid (15,)
C        1.0769367729    0.6922827622    2.5499537976
C        0.1079383508   -0.0749396373    1.6446131859
C       -0.1633507940    0.6597728844    0.2986260973
H        0.6072752041    1.4309736854    0.1852695503
C       -0.0724367544   -0.2948613852   -0.9019429144
C       -1.4879513627    1.4075120106    0.3483343654
C       -2.7565350192    0.5926662033    0.2484227537
C       -1.5245151797    2.7405063309    0.4911476220
H        1.2317306940    0.1733688350    3.5024210072
H        0.6930926932    1.6943563883    2.7733684701
H        2.0542023876    0.8079564594    2.0674278863
H        0.5264978469   -1.0680011668    1.4381415232
H       -0.8327754598   -0.2490096347    2.1778380595
H       -0.2865819243    0.2245066029   -1.8424367728
H        0.9340453345   -0.7219170043   -0.9714367700
H       -0.7768085529   -1.1283797940   -0.8070395377
H       -2.7582302920   -0.2418954226    0.9595398498
H       -2.8634874264    0.1539095942   -0.7505861317
H       -3.6402068573    1.2065595339    0.4421412229
H       -2.4648371391    3.2840011398    0.5572462428
H       -0.6127067923    3.3318907402    0.5442271185
21   
torsion grid (30,)
C        1.0360915211    0.7439661615    2.6450421770
C        0.2849933835   -0.1120020015    1.6206590284
C       -0.0005283560    0.6414411097    0.2947182961
H        0.8083472091    1.3682549891    0.1530410988
C       -0.0206548009   -0.3158594439   -0.9067151934
C       -1.2776539842    1.4642072597    0.4013654139
C       -2.5964555574    0.7281357518    0.3480944741
C       -1.2313407950    2.7964601425    0.5483020354
H        1.1939094481    0.1981133864    3.5816707965
H        0.4793511582    1.6580549835    2.8789215613
H        2.0185455508    1.0395085452    2.2593619649
H        0.8859971667   -1.0028592559    1.3967136083
H       -0.6512262855   -0.4822717257    2.0533784001
H       -0.2675378744    0.2121052254   -1.8342089320
H        0.9603271737   -0.7861599768   -1.0344986524
H       -0.7539798112   -1.1179587021   -0.7687433471
H       -2.6307274033   -0.0963774343    1.0697028943
H       -2.7608775577    0.2864809123   -0.6417208300
H       -3.4334829898    1.3987684484    0.5599269780
H       -2.1352344351    3.3937418303    0.6493427644
H       -0.2853237975    3.3336196275    0.5692770008
21   
torsion grid (45,)
C        0.8608624065    0.7657224532    2.7158173492
C        0.3929635889   -0.1267495161    1.5623028580
C        0.0708871982    0.6563360968    0.2685169545
H        0.8859147556    1.3745656569    0.1139600492
C        0.0139746730   -0.2850563965   -0.9465268332
C       -1.1986904941    1.4852050581    0.4067249353
C       -2.5155340042    0.7510773217    0.5098728283
C       -1.1487108254    2.8248523891    0.4370417508
H        1.0759646439    0.1739960456    3.6121827382
H        0.1021093520    1.5109667818    2.9759505970
H        1.7751445727    1.3059303588    2.4438756258
H        1.1814555704   -0.8551698064    1.3325367021
H       -0.4788413571   -0.7167080630    1.8691480202
H       -0.2598086805    0.2578279170   -1.8574200980
H        0.9896190154   -0.7551829983   -1.1108273869
H       -0.7165216090   -1.0880060957   -0.7988284905
H       -2.5194877148    0.0446392939    1.3480256918
H       -2.7175029915    0.1675867338   -0.3958031221
H       -3.3456954439    1.4478349587    0.6531159896
H       -2.0472998295    3.4296714432    0.5408308657
H       -0.2049616972    3.3606045257    0.3578255781
21   
torsion grid (60,)
C        0.7808932408    0.6953656761    2.5475604385
C        0.5760503758   -0.1701939116    1.3004393058
C        0.2158623452    0.6346650837    0.0333221970
H        1.0438310203    1.3292090926   -0.1585758058
C        0.1031405942   -0.3001059563   -1.1858887570
C       -1.0373908717    1.4771643213    0.2108416774
C       -2.3243789141    0.7594692803    0.5443480539
C       -1.0000541053    2.8102035816    0.0745035690
H        1.0740132107    0.0838276139    3.4077529274
H       -0.1311324647    1.2391860299    2.8133364581
H        1.5669773198    1.4412357806    2.3821645179
H        1.4934569159   -0.7354981422    1.0931234099
H       -0.2017254196   -0.9203905927    1.4917679731
H       -0.1530621630    0.2609793400   -2.0904152659
H        1.0540057548   -0.8153513243   -1.3617608725
H       -0.6629516979   -1.0685033251   -1.0355912076
H       -2.2443878213    0.2201275318    1.4956785009
H       -2.5793486231    0.0160449228   -0.2195582118
H       -3.1589624729    1.4610299226    0.6246234058
H       -1.8917547741    3.4230855145    0.1897423678
H       -0.0740319982    3.3320972916   -0.1580769020
21   
torsion grid (75,)
C        0.5770595283    0.6730527541    2.5716210582
C        0.5976699967   -0.1396950152    1.2727170760
C        0.1774235948    0.6484256953    0.0080242679
H        1.0137980612    1.3058003522   -0.2615885190
C       -0.0027538831   -0.3219431115   -1.1769541749
C       -1.0539647971    1.5090861915    0.2200254620
C       -2.3522382157    0.8004978675    0.5294767991
C       -0.9913065917    2.8450433330    0.1331707576
H        0.9414230849    0.0722051573    3.4120891713
H       -0.4315617218    1.0186799562    2.8156460370
H        1.2127218000    1.5625456950    2.4938074357
H        1.6020045808   -0.5450976128    1.1006042882
H       -0.0618780284   -1.0104144644    1.3871100054
H       -0.2680849003    0.2175651019   -2.0921990040
H        0.9264616775   -0.8720166149   -1.3637583206
H       -0.7863216786   -1.0610734796   -0.9789951738
H       -2.2459355993    0.1259569302    1.3872411299
H       -2.6803917513    0.1849149755   -0.3160327805
H       -3.1492839478    1.5139678479    0.7551726174
H       -1.8688570890    3.4704806446    0.2841495180
H       -0.0579258203    3.3564700447   -0.0927051607
21   
torsion grid (90,)
C        0.5236004038    0.5363670808    2.5367701562
C        0.7016509749   -0.2132257080    1.2110783632
C        0.1860672595    0.5230867535   -0.0596334116
H        1.0164132635    1.1220805344   -0.4529012926
C       -0.1165038273   -0.5117141468   -1.1637184618
C       -0.9987056076    1.4331661872    0.1952311790
C       -2.3213010320    0.7750953714    0.5158822067
C       -0.8786874008    2.7664185867    0.1323204666
H        0.9605289037   -0.0370072032    3.3619358134
H       -0.5309889386    0.7069175056    2.7686541539
H        1.0113792561    1.5170565644    2.5136932804
H        1.7589047035   -0.4575317003    1.0571429848
H        0.1813564414   -1.1771355961    1.2923120119
H       -0.4214988900   -0.0207969595   -2.0942184293
H        0.7751779368   -1.1131019590   -1.3741954738
H       -0.9130239683   -1.2014440248   -0.8652589147
H       -2.2128841405    0.0083927897    1.2917763777
H       -2.7344662459    0.2719504500   -0.3661480907
H       -3.0566883890    1.5077111469    0.8593182916
H       -1.7223640953    3.4268001091    0.3225725342
H        0.0696061908    3.2402812682   -0.1124026947
21   
torsion grid (105,)
C        0.5118223539    0.4959726931    2.5771178473
C        0.8852398531   -0.1512239195    1.2371435954
C        0.2718404787    0.4879013688   -0.0543977611
H        1.0707964530    1.0516991744   -0.5491244221
C       -0.1038132923   -0.6254601749   -1.0535027257
C       -0.8896693203    1.4307841668    0.1990607185
C       -2.2365208251    0.8174250729    0.5087185224
C       -0.7291006614    2.7599826905    0.1360703568
H        1.0367491449   -0.0070664769    3.3969763953
H       -0.5601356573    0.4289816937    2.7802934383
H        0.7821750748    1.5563623491    2.6049015628
H        1.9754464932   -0.1597351578    1.1292136642
H        0.5834960802   -1.2056336301    1.2795294322
H       -0.4758823589   -0.2071647914   -1.9953437394
H        0.7738289542   -1.2409921785   -1.2806484798
H       -0.8737271676   -1.2904792826   -0.6479284497
H       -2.1608538810    0.0304820640    1.2673340916
H       -2.6674144081    0.3493546870   -0.3842290349
H       -2.9430921564    1.5713610144    0.8663779022
H       -1.5517842681    3.4459716626    0.3274994868
H        0.2330125278    3.2048813322   -0.1094536673
21   
torsion grid (120,)
C        0.4639080745    0.3436622049    2.5379509042
C        1.0044676734   -0.1187148862    1.1781112434
C        0.2953415143    0.4247960565   -0.1148407334
H        1.0553988245    0.9675799102   -0.6866183567
C       -0.1641781334   -0.7433258046   -1.0063446869
C       -0.8299800086    1.4152750002    0.1473517161
C       -2.1997002490    0.8714612912    0.4841292278
C       -0.6150810848    2.7358036356    0.0579080349
H        1.1041417072   -0.0361560402    3.3419138178
H       -0.5484561047   -0.0243020526    2.7279381322
H        0.4395237889    1.4346757678    2.6128457271
H        2.0636315934    0.1562028761    1.1219356787
H        0.9819088350   -1.2147764649    1.1537130337
H       -0.6244322105   -0.3834713699   -1.9332925203
H        0.6912348543   -1.3717749608   -1.2771065083
H       -0.8906232168   -1.3818241217   -0.4917728414
H       -2.1587098536    0.1221280631    1.2812973924
H       -2.6476483448    0.3774113935   -0.3861158448
H       -2.8753735477    1.6707257463    0.8007257165
H       -1.4042825431    3.4592014232    0.2522387843
H        0.3602527210    3.1362868749   -0.2116017739
21   
torsion grid (135,)
C        0.3457657315    0.1844396381    2.4875362680
C        1.0370413837   -0.0086797806    1.1314037454
C        0.2741530580    0.4625075457   -0.1543537583
H        1.0051381335    1.0032224748   -0.7645043924
C       -0.2355365764   -0.7362340959   -0.9701668978
C       -0.8253303387    1.4837354522    0.1224423776
C       -2.2044725507    0.9864343793    0.4892462843
C       -0.5729797745    2.7971214245    0.0208437407
H        1.0323376614   -0.0866666002    3.2970154643
H       -0.5433802446   -0.4455952025    2.5948708505
H        0.0434117020    1.2248914351    2.6371426429
H        1.9854387504    0.5397815109    1.1715797295
H        1.3073040467   -1.0645161770    1.0115859879
H       -0.7611268184   -0.4134480752   -1.8755607502
H        0.6031366912   -1.3704483576   -1.2764965654
H       -0.9217060332   -1.3583779091   -0.3847696018
H       -2.1779781835    0.2900882628    1.3330626118
H       -2.6611077963    0.4470946650   -0.3487806757
H       -2.8648136191    1.8170628224    0.7533056955
H       -1.3360785912    3.5450236617    0.2259733667
H        0.4086022122    3.1674790900   -0.2689929365
21   
torsion grid (150,)
C        0.2420916913    0.1038189070    2.4175796403
C        1.0549934301    0.1270819587    1.1174495425
C        0.2881359981    0.4759445454   -0.1940950176
H        1.0164533484    0.9652822430   -0.8501793734
C       -0.2341493374   -0.7861065100   -0.8965498481
C       -0.7988679505    1.5279005521    0.0219669132
C       -2.1984863439    1.0735844869    0.3661891019
C       -0.5106440199    2.8319408646   -0.1022969523
H        0.8962395848   -0.1265983483    3.2654878785
H       -0.5461729381   -0.6572557858    2.4005117968
H       -0.2249268272    1.0739670209    2.6101167369
H        1.8498498988    0.8720414802    1.2441190770
H        1.5594525651   -0.8372504916    0.9793893900
H       -0.7677995061   -0.5413786652   -1.8212442921
H        0.5992606668   -1.4476028007   -1.1556678738
H       -0.9174758143   -1.3532110374   -0.2549853157
H       -2.2124502118    0.4144274400    1.2397727047
H       -2.6411246951    0.5071664950   -0.4614106299
H       -2.8484730648    1.9282644927    0.5732984849
H       -1.2587223834    3.6035020413    0.0669418715
H        0.4869887972    3.1707711625   -0.3760253960
21   
torsion grid (165,)
C        0.2068023002   -0.1386412382    2.3416025438
C        1.0266266882    0.1269331103    1.0733260511
C        0.2235113946    0.4655510864   -0.2112144421
H        0.9519713930    0.8825046418   -0.9165839559
C       -0.3835259946   -0.7922986266   -0.8520327637
C       -0.8003195067    1.5740032751    0.0270566180
C       -2.2156625233    1.1933381083    0.3957762280
C       -0.4420367630    2.8609385352   -0.0916901100
H        0.8673778870   -0.4192807160    3.1690419675
H       -0.5107921285   -0.9556002593    2.2060584256
H       -0.3468365017    0.7533162465    2.6494060226
H        1.7036274122    0.9653546496    1.2760785697
H        1.6630377963   -0.7413084615    0.8582214513
H       -0.9197614315   -0.5510364425   -1.7760078783
H        0.4070692533   -1.5080434856   -1.1015826473
H       -1.0860981295   -1.2981192671   -0.1819106773
H       -2.2482419324    0.5243004926    1.2615863518
H       -2.7061313043    0.6623502575   -0.4284741509
H       -2.8127690213    2.0800319329    0.6262859733
H       -1.1422604697    3.6715372457    0.0981751253
H        0.5676540147    3.1457111096   -0.3824864625
21   
torsion grid (180,)
C        0.2638637680   -0.2887837285    2.3448414602
C        1.0452453445    0.2279199702    1.1305033771
C        0.2308411112    0.4879113384   -0.1632318980
H        0.9617469634    0.8463603651   -0.8982811983
C       -0.3687757333   -0.8069927967   -0.7370209807
C       -0.7988204202    1.6003591764    0.0129172631
C       -2.2050916758    1.2322069985    0.4271250667
C       -0.4561220291    2.8793038693   -0.2005389910
H        0.9494418402   -0.5145685959    3.1687603127
H       -0.2885980928   -1.2067297148    2.1187502744
H       -0.4497047212    0.4557229322    2.7106897827
H        1.5524607454    1.1599800201    1.4048089497
H        1.8341744484   -0.4951187655    0.8828903393
H       -0.8589963483   -0.6209819933   -1.6985898532
H        0.4204161868   -1.5489381359   -0.9016576760
H       -1.1096128596   -1.2572957996   -0.0699537518
H       -2.2188889404    0.6053842402    1.3245192610
H       -2.7077750565    0.6592914826   -0.3610930235
H       -2.8028570557    2.1263513202    0.6247315680
H       -1.1619362784    3.6944617544   -0.0562159653
H        0.5460781780    3.1526649673   -0.5259318854
