21   
torsion grid (-165,)
C        4.4875237049    1.7952162569    1.4850932331
C        4.9814611744    0.4988509963    1.8078368529
C        3.9944460161    2.0306990786    0.2357621902
C        5.0045845040   -0.4481694299    0.8255727693
C        3.9104979942    0.9974169883   -0.7857995879
C        4.5285876025   -0.9951364991   -2.9084231246
C        5.9916269678   -2.1385911521   -1.2459298093
C        4.6640253342   -1.3792690200   -1.4275395915
N        4.5797953985   -0.2218754583   -0.4638387164
O        3.3014189192    1.1644458588   -1.8455759671
H        4.4903915967    2.5841863730    2.2337600962
H        5.3398093716    0.2496829005    2.8000674177
H        3.5754765159    2.9890746105   -0.0523957777
H        5.3764585659   -1.4404449642    1.0365084361
H        3.5405168521   -0.6233642509   -3.1593932857
H        4.7381641675   -1.8933652043   -3.4987261455
H        5.2588306848   -0.2292537709   -3.1861694409
H        6.0665817023   -2.9011445831   -2.0251789877
H        6.0861866173   -2.6585308551   -0.2904561951
H        6.8409993658   -1.4562814654   -1.3550631949
H        3.8340082860   -2.0506502289   -1.1733448573
21   
torsion grid (-150,)
C        4.4735803881    1.7974431669    1.4495965867
C        5.1781430878    0.5942102114    1.7383984098
C        3.8450222523    1.9343835767    0.2459631022
C        5.2673530626   -0.3579588022    0.7631561691
C        3.8192438555    0.8654896647   -0.7370347861
C        4.8407322737   -0.9057487843   -2.9239817072
C        5.8643418989   -2.3643692394   -1.1485322194
C        4.7509201482   -1.3588779329   -1.4578091524
N        4.7380967715   -0.2021253847   -0.4976005294
O        3.0509401097    0.8587450260   -1.7039100524
H        4.4204638022    2.5908027657    2.1916878092
H        5.6495560869    0.4207765399    2.6989993542
H        3.2503159373    2.8065723656   -0.0042362276
H        5.8237496517   -1.2663508637    0.9406933401
H        3.9757756704   -0.3246282951   -3.2255617365
H        4.9145445253   -1.7973257001   -3.5547532007
H        5.7444012275   -0.3061565708   -3.0864216428
H        5.8730821231   -3.1158840814   -1.9419158852
H        5.7191282320   -2.9018505320   -0.2077486335
H        6.8484921552   -1.8836837220   -1.1345558079
H        3.7824983403   -1.8590760451   -1.3309673699
21   
torsion grid (-135,)
C        4.4629970503    1.7696349256    1.4829388256
C        5.3289156078    0.6593919901    1.6900266437
C        3.7073702314    1.8385951090    0.3466206301
C        5.4200000659   -0.2877266991    0.7080141839
C        3.7250271181    0.7892327679   -0.6534226012
C        4.9849403029   -0.8121201268   -2.8938656924
C        5.7211340888   -2.4435820989   -1.1110760563
C        4.7443954514   -1.3245292359   -1.4660308993
N        4.7426175377   -0.1966484588   -0.4812201240
O        2.9208075171    0.7147121387   -1.5896370330
H        4.3909630935    2.5506344053    2.2364997737
H        5.9147519232    0.5496352019    2.5954075811
H        3.0003862444    2.6416576481    0.1670575571
H        6.0870499593   -1.1307557281    0.8187995656
H        4.2503103838   -0.0619815054   -3.1750399128
H        4.9107571458   -1.6540343647   -3.5897158279
H        5.9914999441   -0.3866503990   -2.9846177213
H        5.6458301978   -3.2124100794   -1.8847856224
H        5.4917547071   -2.9235442099   -0.1551250396
H        6.7599229082   -2.0959943552   -1.0958621215
H        3.7255036422   -1.7271584848   -1.4349747271
21   
torsion grid (-120,)
C        4.4575773178    1.7569236392    1.4853489526
C        5.4303332458    0.7268018641    1.6150837416
C        3.6030873052    1.7627244904    0.4175895119
C        5.5011530849   -0.2276140095    0.6370132022
C        3.6371006944    0.7333194382   -0.6006432124
C        5.0966634289   -0.7456011756   -2.8588519466
C        5.5930660810   -2.4910069024   -1.0872632511
C        4.7158968984   -1.3058687118   -1.4817234855
N        4.6936033558   -0.2126704419   -0.4665712817
O        2.8256180409    0.6370087360   -1.5298678165
H        4.3874454726    2.5335788227    2.2436148470
H        6.1070970230    0.6802502771    2.4604709007
H        2.8305813580    2.5149319619    0.2975958541
H        6.2332206538   -1.0220267344    0.6879977120
H        4.4240311869    0.0609746981   -3.1472550718
H        5.0268508205   -1.5407758310   -3.6082041049
H        6.1277602342   -0.3732740268   -2.8516426797
H        5.4634762125   -3.2718934133   -1.8417918050
H        5.3099140342   -2.9170360605   -0.1197155435
H        6.6582211814   -2.2361111724   -1.0661975319
H        3.6770413339   -1.6444656236   -1.5428335524
21   
torsion grid (-105,)
C        4.4509032396    1.7473663972    1.4795332210
C        5.5071655434    0.7949292918    1.5253230045
C        3.5112804673    1.6862442279    0.4870548531
C        5.5546298658   -0.1689089894    0.5547987173
C        3.5458757820    0.6714292158   -0.5455185842
C        5.2033155132   -0.7022102741   -2.8145023402
C        5.4739388027   -2.5325619028   -1.0707373749
C        4.6864422969   -1.2957217970   -1.4984477449
N        4.6355758731   -0.2384792030   -0.4529374701
O        2.7168812576    0.5601525989   -1.4579095849
H        4.3899355530    2.5234556944    2.2391992072
H        6.2618157286    0.8130999725    2.3030823532
H        2.6883816357    2.3905532824    0.4256837959
H        6.3383192379   -0.9153213037    0.5429558001
H        4.5844556294    0.1429581866   -3.1192308468
H        5.1676747772   -1.4595065359   -3.6045285300
H        6.2417593461   -0.3678655764   -2.7070851714
H        5.3084482663   -3.3170880152   -1.8145888684
H        5.1404309722   -2.9149906212   -0.1008915353
H        6.5537020411   -2.3536108551   -1.0285135685
H        3.6416655357   -1.5783004220   -1.6481732985
21   
torsion grid (-90,)
C        4.4613480653    1.7366722443    1.4793385791
C        5.5898370046    0.8701239024    1.4259896103
C        3.4468342397    1.6071460147    0.5707890926
C        5.6199479182   -0.0926372281    0.4544057675
C        3.4765337550    0.6085786639   -0.4787250534
C        5.3518499523   -0.6778987882   -2.7696286895
C        5.3547843352   -2.5673338675   -1.0581952083
C        4.6857679188   -1.2734913481   -1.5246760959
N        4.6122739938   -0.2463144336   -0.4543158867
O        2.6092972499    0.4707432037   -1.3507295458
H        4.4080631375    2.5059436912    2.2464852947
H        6.4100245174    0.9529812424    2.1296462422
H        2.5757535532    2.2537605077    0.5805420615
H        6.4516265088   -0.7810463806    0.3664108523
H        4.8139198593    0.2146003036   -3.0977811831
H        5.3425046087   -1.4056881341   -3.5875412271
H        6.3938876976   -0.4077146100   -2.5631229716
H        5.1878357357   -3.3387058250   -1.8156932824
H        4.9282249521   -2.9213065312   -0.1145258655
H        6.4386651597   -2.4672778448   -0.9378660679
H        3.6423088459   -1.4828367368   -1.7646119650
21   
torsion grid (-75,)
C        4.4488061209    1.7124609211    1.4909172992
C        5.6470295991    0.9617215883    1.3173305738
C        3.3669752072    1.4856523352    0.6855682329
C        5.6736673216    0.0115342640    0.3345633220
C        3.3860489817    0.4941243802   -0.3724010749
C        5.5201591829   -0.7189516154   -2.7181237551
C        5.2080917768   -2.6002074195   -1.0169597144
C        4.6939788440   -1.2589578611   -1.5465529327
N        4.6005507077   -0.2383948997   -0.4729041041
O        2.4473066545    0.2696495399   -1.1462802053
H        4.3967111222    2.4718922066    2.2678968101
H        6.5208838992    1.1242021594    1.9375264396
H        2.4426293259    2.0440094677    0.7893651840
H        6.5557738916   -0.5918292579    0.1520366450
H        5.0925623373    0.2167765237   -3.0885011399
H        5.5265738003   -1.4430795894   -3.5390507454
H        6.5592245662   -0.5329337235   -2.4228667426
H        5.0990590247   -3.3589954371   -1.7977414535
H        4.6323489134   -2.9228065951   -0.1444012000
H        6.2677113396   -2.5687866812   -0.7415932297
H        3.6633507310   -1.3841192308   -1.8791125675
21   
torsion grid (-60,)
C        4.4179810985    1.7228873949    1.4911920798
C        5.6634476661    1.1007550475    1.1879405967
C        3.2912730681    1.3956551829    0.7887770617
C        5.6914584287    0.1785098727    0.1793307377
C        3.3034572675    0.4144022987   -0.2793223437
C        5.6603784647   -0.7418766676   -2.7013492820
C        4.9905390454   -2.5560882538   -1.0303756955
C        4.6725976823   -1.1761743678   -1.6144971434
N        4.5784332911   -0.1598607470   -0.5370141561
O        2.3114699337    0.0760598947   -0.9364333418
H        4.3650213872    2.4622142221    2.2872702894
H        6.5712490388    1.3394513295    1.7297647143
H        2.3286821422    1.8505649758    0.9971260150
H        6.6075156645   -0.3305927520   -0.0997612128
H        5.4099684535    0.2545479124   -3.0767768642
H        5.6148685843   -1.4451169375   -3.5386198364
H        6.6949007981   -0.7253942263   -2.3411605218
H        4.9651166737   -3.3096891600   -1.8237114601
H        4.2533479456   -2.8320486764   -0.2710544154
H        5.9857820838   -2.5867989950   -0.5728217152
H        3.6694918643   -1.1996078588   -2.0402779587
21   
torsion grid (-45,)
C        4.4301327113    1.7124955928    1.4654896569
C        5.7049031230    1.2320821518    1.0497435391
C        3.2901695007    1.2699364467    0.8527121465
C        5.7501294597    0.3334612893    0.0197701876
C        3.3207470110    0.2977123418   -0.2221560281
C        5.8363174358   -0.8040724686   -2.6941950549
C        4.8249615228   -2.5224556870   -1.1011892903
C        4.7141529949   -1.1172561952   -1.7016610228
N        4.6249559532   -0.1089762888   -0.6156752319
O        2.3209713582   -0.1691553585   -0.7820095678
H        4.3646856931    2.4339343781    2.2768968762
H        6.6234939428    1.5602079008    1.5221956095
H        2.3042745577    1.6112723851    1.1501797968
H        6.6897773679   -0.0675538526   -0.3419753379
H        5.7868872148    0.2355595153   -3.0318270861
H        5.7254094385   -1.4515989985   -3.5690683862
H        6.8335887575   -0.9899762223   -2.2815187946
H        4.8217199579   -3.2745352617   -1.8967589447
H        3.9795688497   -2.7208421543   -0.4372244736
H        5.7533530062   -2.6349871736   -0.5294199286
H        3.7556565248   -1.0376529141   -2.2152920021
21   
torsion grid (-30,)
C        4.4644420956    1.7166737326    1.4874169137
C        5.7423164122    1.3667735479    0.9669858326
C        3.3295548641    1.1588760358    0.9652814798
C        5.7975079443    0.4701739148   -0.0653049394
C        3.3731037619    0.1951414997   -0.1152577441
C        5.9604690083   -0.8714532114   -2.6199319602
C        4.7090837260   -2.5062246049   -1.1303666082
C        4.7525074470   -1.0864620821   -1.7077118043
N        4.6769147787   -0.0957613527   -0.6023960960
O        2.3843585064   -0.3603703527   -0.6108818601
H        4.3919760022    2.4318049479    2.3037844602
H        6.6579474010    1.7920216088    1.3613390567
H        2.3404962986    1.4030222716    1.3382979560
H        6.7421989377    0.1691520299   -0.5004897152
H        6.0399505311    0.1692018573   -2.9498133710
H        5.8383665740   -1.4977630902   -3.5083780785
H        6.9047299765   -1.1651734457   -2.1494974944
H        4.6904398868   -3.2419064171   -1.9410741706
H        3.8123770827   -2.6422292283   -0.5221886321
H        5.5927980527   -2.6996320755   -0.5115414807
H        3.8384032562   -0.9229910659   -2.2810980405
21   
torsion grid (-15,)
C        4.4486282697    1.7000134983    1.4975517791
C        5.7163659798    1.4720947040    0.8931261509
C        3.3401885743    1.0407101772    1.0415148599
C        5.7927819314    0.5755664622   -0.1382101441
C        3.4027627688    0.1002122570   -0.0577449867
C        6.0591438996   -0.9172102441   -2.5598603136
C        4.6267055771   -2.5027236849   -1.2206299526
C        4.7808926131   -1.0645655070   -1.7357739713
N        4.7045287167   -0.1148759692   -0.5912177196
O        2.4284124245   -0.4945670528   -0.5361438765
H        4.3614910556    2.4061940462    2.3202357277
H        6.6102599934    1.9882020897    1.2238498795
H        2.3553690569    1.1998730506    1.4678646942
H        6.7347703745    0.3653991555   -0.6270197065
H        6.2194519231    0.1107289502   -2.9007352804
H        5.9664218762   -1.5500227953   -3.4470515939
H        6.9482860235   -1.2539053036   -2.0166561283
H        4.6071650260   -3.1998712836   -2.0646946397
H        3.6971681922   -2.6141203985   -0.6612739506
H        5.4709499833   -2.7695156096   -0.5748241535
H        3.9152842645   -0.8261977858   -2.3580795979
21   
torsion grid (0,)
C        4.4354890906    1.6844537145    1.4994535997
C        5.6770573737    1.5611448937    0.8156462092
C        3.3607155541    0.9368074172    1.1052826771
C        5.7695947989    0.6595441021   -0.2093194907
C        3.4300390282    0.0211589814   -0.0149339524
C        6.1429811806   -0.9842978756   -2.4942079588
C        4.5440786673   -2.5041418057   -1.3175855684
C        4.8027689419   -1.0547688546   -1.7628124555
N        4.7276604867   -0.1462948236   -0.5803202251
O        2.4597716142   -0.5858911170   -0.4848605880
H        4.3396621887    2.3841280868    2.3267050197
H        6.5411121479    2.1581578816    1.0837282098
H        2.3886565419    1.0241866082    1.5790085564
H        6.6984246104    0.5258205869   -0.7461464345
H        6.3748565853    0.0183537072   -2.8677398430
H        6.0899636090   -1.6499600865   -3.3600756095
H        6.9710256890   -1.3315212121   -1.8677442853
H        4.5346305046   -3.1597127341   -2.1943766962
H        3.5853563761   -2.5954301187   -0.8093326541
H        5.3431619050   -2.8409741444   -0.6476699528
H        3.9939981787   -0.7411514620   -2.4283123677
21   
torsion grid (15,)
C        4.4599371518    1.6947224353    1.5243834133
C        5.6479610410    1.6669276510    0.7406761021
C        3.4186621838    0.8682898059    1.2094123589
C        5.7331203177    0.7592481108   -0.2780697071
C        3.4630298564   -0.0208018874    0.0647465198
C        6.1971701441   -1.0567349649   -2.4033134436
C        4.4345801123   -2.4744650662   -1.3881128836
C        4.8054228820   -1.0277755886   -1.7655023427
N        4.7428962500   -0.1501341789   -0.5538357206
O        2.4796374506   -0.6248617747   -0.3781460872
H        4.3763849281    2.3866829596    2.3593688270
H        6.4782107791    2.3370255311    0.9322054223
H        2.4771369401    0.8886516084    1.7480250746
H        6.6282566912    0.6931594917   -0.8795757323
H        6.5104754174   -0.0924698493   -2.8157985121
H        6.1737007114   -1.7661295870   -3.2345892880
H        6.9556341201   -1.4039123900   -1.6944462948
H        4.4590030482   -3.0966001601   -2.2884733844
H        3.4414153275   -2.5380462849   -0.9504056416
H        5.1684001045   -2.8745950904   -0.6794309468
H        4.0653346482   -0.6384965653   -2.4711337845
21   
torsion grid (30,)
C        4.4492876351    1.6602945205    1.5441704552
C        5.5513319593    1.7578196474    0.6469253052
C        3.4753453818    0.7326502301    1.3133619458
C        5.6388053227    0.8575824289   -0.3762417372
C        3.4929012167   -0.1269898515    0.1423040336
C        6.2760181676   -1.1353539817   -2.2918026499
C        4.3399706196   -2.4543683021   -1.5173797317
C        4.8264625763   -1.0186582198   -1.7962385796
N        4.7334845264   -0.1621968898   -0.5653765570
O        2.5104948374   -0.7727741078   -0.2348511957
H        4.3755029325    2.3359323938    2.3933031147
H        6.3189792978    2.5147638052    0.7601440237
H        2.5881540855    0.6533321754    1.9327347558
H        6.4771862655    0.8861755406   -1.0565844299
H        6.6824359231   -0.2089099076   -2.7076554974
H        6.3066458810   -1.8761514295   -3.0942806494
H        6.9352977711   -1.4810982997   -1.4893924486
H        4.5166890476   -3.0612823968   -2.4107290208
H        3.2853294661   -2.4954420953   -1.2642634977
H        4.9182438338   -2.8906239369   -0.6949970860
H        4.1903426940   -0.5603863365   -2.5610525181
21   
torsion grid (45,)
C        4.4752451320    1.6938517218    1.5365044554
C        5.4173752781    1.9061069766    0.4894996306
C        3.6157477060    0.6383750027    1.4588172244
C        5.4615080225    1.0032427902   -0.5324410595
C        3.5908691379   -0.2813129813    0.3303764455
C        6.3542419738   -1.2594364120   -2.0313899512
C        4.1437246477   -2.3651291802   -1.7286110868
C        4.8513476162   -1.0055248669   -1.8050297424
N        4.6451756345   -0.1014425887   -0.6144685756
O        2.7197251036   -1.1458751995    0.2041662413
H        4.4349235219    2.3756511124    2.3829800368
H        6.0928958435    2.7538578221    0.4850330045
H        2.8624656714    0.4460425503    2.2155272214
H        6.1602369456    1.1373965634   -1.3461477602
H        6.9249647870   -0.3716084785   -2.3100794200
H        6.4690328883   -1.9765457869   -2.8483526369
H        6.8061186182   -1.6921484115   -1.1328219588
H        4.4578785731   -2.9404244338   -2.6061879951
H        3.0614143418   -2.2796223611   -1.7262450508
H        4.4397783312   -2.9189294195   -0.8337370953
H        4.4506494674   -0.4622902328   -2.6702888182
21   
torsion grid (60,)
C        4.4655195745    1.7721150363    1.4657556637
C        5.2831779113    2.0496468560    0.3309160634
C        3.7955345151    0.5864004871    1.5414509817
C        5.3375844566    1.1184971158   -0.6641210510
C        3.9108301217   -0.4483354593    0.5234781999
C        6.4058880820   -1.4142543330   -1.7593187112
C        3.9926422203   -2.2092698384   -1.9201416029
C        4.9254618956   -1.0073450460   -1.7690195243
N        4.6267695388   -0.0582698300   -0.6436131269
O        3.4290958492   -1.5767622362    0.6570587790
H        4.3839401605    2.5008506039    2.2690461301
H        5.8447558808    2.9720290135    0.2374976533
H        3.1840612942    0.3197469105    2.3970749047
H        5.9142859721    1.2978577520   -1.5651700326
H        7.0772170929   -0.5526394944   -1.7815393702
H        6.6181041036   -2.0312915295   -2.6380767324
H        6.6367527795   -2.0045104371   -0.8660976946
H        4.1865327716   -2.6399446486   -2.9096648389
H        2.9428992951   -1.9151996963   -1.8723137517
H        4.1629967049   -2.9691928883   -1.1597133846
H        4.7694528020   -0.3899175126   -2.6635497464
21   
torsion grid (75,)
C        4.4202464321    1.7576442410    1.4308796152
C        5.1289985060    2.1123547524    0.2452095751
C        3.8999782900    0.5022529549    1.5637417833
C        5.2205549108    1.1832037304   -0.7502970518
C        4.0798167891   -0.5240993428    0.5491851790
C        6.3861808189   -1.5526729253   -1.6154932190
C        3.9157351023   -2.0946049422   -2.0355529142
C        4.9625963190   -1.0086629883   -1.7790597252
N        4.6403835539   -0.0591497617   -0.6709298048
O        3.7828519418   -1.7113523848    0.7157218194
H        4.3067161500    2.4844004794    2.2320877534
H        5.5806449319    3.0891404389    0.1160870335
H        3.3861157268    0.1799435831    2.4633114764
H        5.7263956713    1.4010522877   -1.6859664152
H        7.1152835243   -0.7407598232   -1.5346338986
H        6.6509911602   -2.1683600531   -2.4812596698
H        6.4578201153   -2.1743726599   -0.7178507310
H        4.1009255357   -2.5061112604   -3.0342956449
H        2.9054736443   -1.6762811017   -2.0223605263
H        3.9607698769   -2.8949311060   -1.3002935071
H        4.9579006015   -0.3672382474   -2.6683808962
21   
torsion grid (90,)
C        4.3915755579    1.7449430830    1.4163107739
C        4.9838876794    2.1632159109    0.1894254809
C        4.0174281771    0.4417940246    1.5873705353
C        5.1226495596    1.2372713482   -0.8054613101
C        4.2304334611   -0.5657121136    0.5634660368
C        6.3697925446   -1.6807639576   -1.5356528876
C        3.8868364332   -1.9803681768   -2.1167257402
C        5.0186888547   -1.0032416472   -1.7873520697
N        4.6982083564   -0.0600656405   -0.6781219634
O        4.0382852312   -1.7757696982    0.7299976446
H        4.2489893881    2.4634814428    2.2202987064
H        5.3145341482    3.1828468325    0.0290492042
H        3.5919075318    0.0786749985    2.5169975204
H        5.5532482476    1.4952904567   -1.7679956881
H        7.1580773286   -0.9355551564   -1.3884229126
H        6.6394565628   -2.3027753193   -2.3954574163
H        6.3185463568   -2.3184706254   -0.6495087960
H        4.0971496923   -2.4327276319   -3.0920459181
H        2.9299592295   -1.4537276721   -2.1870136821
H        3.7951279217   -2.7637637232   -1.3670037982
H        5.1312132026   -0.3513248356   -2.6602966824
21   
torsion grid (105,)
C        4.3614074614    1.7427783249    1.3973145344
C        4.8437452130    2.1946218216    0.1357050562
C        4.1285984082    0.4120766760    1.6076440657
C        5.0424508535    1.2651406883   -0.8469208152
C        4.3699623678   -0.5884623467    0.5851347693
C        6.3636397059   -1.8110687181   -1.4897900459
C        3.8904904707   -1.8750204984   -2.1647410261
C        5.0932889611   -1.0060218490   -1.7838466781
N        4.7880866291   -0.0680608308   -0.6675761866
O        4.2374739999   -1.8068786453    0.7559832514
H        4.1839211656    2.4596191847    2.1958595830
H        5.0498497669    3.2405108710   -0.0599260541
H        3.7753024192    0.0297349808    2.5595310172
H        5.4021791131    1.5454642352   -1.8317931921
H        7.2030591855   -1.1431618592   -1.2708106052
H        6.6246420616   -2.4142908332   -2.3655962585
H        6.2101157502   -2.4769711648   -0.6388178870
H        4.1170694201   -2.4000674600   -3.0988019024
H        3.0038373212   -1.2545169742   -2.3303371333
H        3.6671561343   -2.6060655858   -1.3887061547
H        5.3024608643   -0.3522587275   -2.6363682415
21   
torsion grid (120,)
C        4.3299345886    1.7414405385    1.3894816904
C        4.7001430230    2.2010871659    0.0935611609
C        4.2328848322    0.4011285763    1.6417423613
C        4.9579043164    1.2665579413   -0.8706279754
C        4.4901661936   -0.6010462284    0.6250800815
C        6.3376537340   -1.9445609034   -1.4485332315
C        3.8953092430   -1.7713391197   -2.1862244831
C        5.1595148117   -1.0155857534   -1.7614828872
N        4.8770964480   -0.0797328343   -0.6373198869
O        4.3893331113   -1.8211526184    0.8067860788
H        4.1223892650    2.4604915387    2.1787402875
H        4.7816219040    3.2561007068   -0.1408216019
H        3.9488167321    0.0146303581    2.6148821703
H        5.2468415348    1.5518702535   -1.8770729545
H        7.2157314556   -1.3665469913   -1.1424173016
H        6.5979971423   -2.5066725534   -2.3516220378
H        6.0830421034   -2.6460478346   -0.6543503442
H        4.1096124982   -2.3565037557   -3.0866592222
H        3.0852879230   -1.0720537509   -2.4179772087
H        3.5640942898   -2.4468975847   -1.3967527758
H        5.4584515214   -0.3671011958   -2.5903666072
21   
torsion grid (135,)
C        4.3080023734    1.7391203292    1.3678729506
C        4.5608153201    2.1882268209    0.0398529443
C        4.3512196359    0.4046720104    1.6607361877
C        4.8746786479    1.2525603098   -0.9055868984
C        4.6254908508   -0.6025584317    0.6523393596
C        6.3011968797   -2.0660327119   -1.4399361551
C        3.9148887839   -1.6546487818   -2.2290812595
C        5.2281954677   -1.0186723012   -1.7570971988
N        4.9699393143   -0.0848972282   -0.6240658075
O        4.5649630958   -1.8215835539    0.8535431240
H        4.0714403531    2.4606424018    2.1466315606
H        4.5155285408    3.2366626467   -0.2310662981
H        4.1413758047    0.0230519595    2.6544356479
H        5.0883479753    1.5307523626   -1.9327557906
H        7.1935152311   -1.5937669013   -1.0162819760
H        6.5909332721   -2.5593912880   -2.3740323487
H        5.9356567250   -2.8116832756   -0.7365921240
H        4.1016266955   -2.2780353004   -3.1096830718
H        3.1832727460   -0.8865692696   -2.5007860284
H        3.4925885312   -2.2816832682   -1.4411858176
H        5.6141110671   -0.3802538107   -2.5573464943
21   
torsion grid (150,)
C        4.3699185149    1.6855359295    1.4890405564
C        4.4707674990    0.3206936191    1.8876779992
C        4.4153238669    2.0151419565    0.1641955445
C        4.5632887209   -0.6276149885    0.9095763442
C        4.6052910613    1.0199810676   -0.8776537978
C        4.0852936727   -1.3215968269   -2.7266474347
C        6.2992974352   -1.6572783057   -1.5434133296
C        4.7873063520   -1.4579659106   -1.3713633877
N        4.5392541428   -0.3262673686   -0.4291698355
O        4.8177687292    1.2976080862   -2.0629795975
H        4.2699053238    2.4636901080    2.2423360956
H        4.4680908466    0.0241102345    2.9301625923
H        4.3767573683    3.0438484419   -0.1784659087
H        4.6252767457   -1.6851206207    1.1472773815
H        3.0432087883   -1.0109448587   -2.6042972661
H        4.0898661712   -2.3059186531   -3.2083549732
H        4.5822018372   -0.6000543281   -3.3704366453
H        6.4928765868   -2.5226258651   -2.1856813515
H        6.7914783856   -1.8264780145   -0.5800651035
H        6.7412729623   -0.7737707549   -2.0116168107
H        4.3668423072   -2.3321493165   -0.8647282422
21   
torsion grid (165,)
C        4.4217035004    1.7134926738    1.5269527274
C        4.6473117589    0.3527265202    1.8883597647
C        4.3002292100    2.0544791594    0.2111532009
C        4.6910098000   -0.5760292488    0.8900280089
C        4.4349743017    1.0844486528   -0.8653627945
C        4.1853913628   -1.2045994551   -2.8080547921
C        6.2219293403   -1.7408543212   -1.4412377352
C        4.7220775877   -1.4074838758   -1.3879143574
N        4.5045751864   -0.2698777528   -0.4368837946
O        4.4913232819    1.4017798481   -2.0571776986
H        4.3573611344    2.4771334846    2.2987539641
H        4.7736671746    0.0439719063    2.9196373793
H        4.1595171213    3.0809427642   -0.1108757757
H        4.8332950691   -1.6300813170    1.1068710501
H        3.1632586924   -0.8186098503   -2.8082290660
H        4.1789108311   -2.1872628399   -3.2943699454
H        4.8027372759   -0.5205869291   -3.3851539420
H        6.3897279890   -2.6045585950   -2.0925996833
H        6.6290415139   -1.9746461042   -0.4528112031
H        6.7765172282   -0.8905247263   -1.8493852651
H        4.1814816322   -2.2472281061   -0.9385000222
21   
torsion grid (180,)
C        4.4886403323    1.7378798743    1.5251234411
C        4.8204635906    0.3933037282    1.8617380446
C        4.1881813967    2.0531190787    0.2331328727
C        4.8282261176   -0.5348533297    0.8627212159
C        4.2056280995    1.0776716549   -0.8485661965
C        4.3574666417   -1.1358235789   -2.8711724039
C        6.1502523506   -1.9063659136   -1.3331239523
C        4.6942332777   -1.4057453434   -1.4012021718
N        4.5161476622   -0.2540991489   -0.4469323406
O        3.9691427463    1.3844129559   -2.0201595778
H        4.4741548999    2.5055660333    2.2954859932
H        5.0561220568    0.0940841997    2.8765674238
H        3.9357433721    3.0628294728   -0.0731304490
H        5.0436928853   -1.5751079488    1.0773989752
H        3.3418172018   -0.7678455947   -3.0112380815
H        4.4585001923   -2.0931055080   -3.3960393342
H        5.0397392489   -0.4144170945   -3.3191848905
H        6.2740239527   -2.7559116436   -2.0113299067
H        6.4553381260   -2.2323707891   -0.3360713765
H        6.8310134478   -1.1115467541   -1.6542718489
H        4.0241168183   -2.1908374690   -1.0316910396
