12   
torsion grid (-165,)
C       -0.9549969066   -0.3436875905   -0.1902802595
C       -1.0634818608   -1.7561786849   -0.7161870169
C        1.6601152045    1.1376789231    1.5404026667
O       -1.7110884765    0.5675818490   -0.3873937287
O        0.1931026555   -0.2618652245    0.5825145821
O        0.3378209585    1.0926585736    1.0982645227
F        1.7388529775    2.2757879569    2.2596033149
F        2.5245335343    1.2284303621    0.4932372722
H       -1.0042110836   -1.7175318537   -1.8070742985
H       -2.0459826904   -2.1483669712   -0.4434464197
H       -0.2806028791   -2.4104227885   -0.3310270054
H        1.9323744336    0.2711533654    2.1471276158
12   
torsion grid (-150,)
C       -0.9291781532   -0.3379888065   -0.1871496681
C       -1.0543073146   -1.7505343962   -0.7091804782
C        1.6482795833    1.1332714917    1.5208282793
O       -1.6090035404    0.6083949074   -0.4737934940
O        0.1285155014   -0.3079864180    0.7122572260
O        0.2831069876    1.0347167726    1.2503521438
F        1.7676470450    2.2501659656    2.2666702979
F        2.3631683591    1.2996655441    0.3747165567
H       -0.8794671828   -1.7302953018   -1.7880464394
H       -2.0786088160   -2.0896622434   -0.5377182476
H       -0.3509648081   -2.4375211598   -0.2373355357
H        2.0372482054    0.2630115610    2.0541406048
12   
torsion grid (-135,)
C       -0.8855129068   -0.3336515178   -0.1767814014
C       -1.0445225941   -1.7418714055   -0.7008293026
C        1.6255056217    1.1279637463    1.4959697419
O       -1.4698197873    0.6491288389   -0.5391973767
O        0.0721402626   -0.3605390919    0.8331119135
O        0.2425124762    0.9650735962    1.4010198431
F        1.7874797894    2.2258935130    2.2613792125
F        2.1750612618    1.3655769465    0.2736560359
H       -0.7618279915   -1.7452977295   -1.7567322902
H       -2.1000628503   -2.0152595275   -0.6314622002
H       -0.4368505347   -2.4648225746   -0.1556389397
H        2.1223331197    0.2630431227    1.9412460093
12   
torsion grid (-120,)
C       -0.8361844565   -0.3297353524   -0.1509039649
C       -1.0284423218   -1.7261567211   -0.6939192577
C        1.5924230870    1.1182645976    1.4637803503
O       -1.3184206723    0.6872208652   -0.5636473798
O        0.0159072755   -0.4157208700    0.9517904456
O        0.2167026791    0.8897996182    1.5478665414
F        1.8021728497    2.2136739794    2.2205461616
F        1.9669620941    1.3924052673    0.1846949264
H       -0.6369927863   -1.7509868769   -1.7142728977
H       -2.1005225108   -1.9321026015   -0.7370680077
H       -0.5283647752   -2.4840437728   -0.0900075038
H        2.1811954042    0.2726197836    1.8268818317
12   
torsion grid (-105,)
C       -0.5146931047   -0.4734266243   -0.3685799078
C       -0.9659063122   -1.9084211266   -0.4851035183
C        1.3861798058    1.3522971651    1.3399301881
O       -0.4182796048    0.3418377029   -1.2459398239
O       -0.2172945775   -0.2246929053    0.9710356909
O        0.0048274249    1.1871097437    1.1931504283
F        1.8241529578    0.7958009431    2.5008086495
F        1.5589614914    2.6868717142    1.4124305698
H       -0.5936357646   -2.3157997899   -1.4262076814
H       -2.0599781118   -1.9204433599   -0.5106666848
H       -0.6300978066   -2.5147986553    0.3573801670
H        1.9521994692    0.9289031090    0.5075031682
12   
torsion grid (-90,)
C       -0.4584477468   -0.4783581863   -0.3078984022
C       -0.9568322496   -1.8922599025   -0.4734300584
C        1.3470721393    1.3444912966    1.2867779872
O       -0.2179901835    0.3237945421   -1.1718397091
O       -0.3095882429   -0.2293977997    1.0532231169
O       -0.0435428603    1.1678578803    1.3124247959
F        1.9344664812    0.7172146105    2.3409567247
F        1.5122562183    2.6737760308    1.4307688678
H       -0.4928169235   -2.3247585283   -1.3610440867
H       -2.0392658477   -1.8552297994   -0.6308179379
H       -0.7524434127   -2.5045999645    0.4059858709
H        1.8035684949    0.9927077371    0.3606340764
12   
torsion grid (-75,)
C       -0.4103825421   -0.4901945278   -0.2641359402
C       -0.9494190824   -1.8876770016   -0.4478744651
C        1.3169128394    1.3539053075    1.2334950774
O       -0.0386761750    0.2691304945   -1.1229576679
O       -0.4156569289   -0.2035616645    1.0914987823
O       -0.0687450449    1.1691254852    1.3948495803
F        2.0091331349    0.5718377985    2.1049202271
F        1.4989517737    2.6468608146    1.5685470869
H       -0.3964784762   -2.3695218795   -1.2556554415
H       -1.9999000257   -1.8105878861   -0.7448772900
H       -0.8852381248   -2.4768349897    0.4677002932
H        1.6659345188    1.1627559656    0.2202310031
12   
torsion grid (-60,)
C       -0.4272355927   -0.4893674277   -0.1983132117
C       -0.9440092820   -1.8939438898   -0.3978814955
C        1.2948839852    1.3897498911    1.1489998109
O       -0.0239913336    0.2621026301   -1.0520402726
O       -0.4745833135   -0.2030668945    1.1488905818
O       -0.0445501225    1.1308816209    1.5214022542
F        2.1054438443    0.3760426000    1.5495032276
F        1.5905024707    2.5016433256    1.8545836404
H       -0.1158951497   -2.5147130064   -0.7506987366
H       -1.7064167492   -1.8671395792   -1.1796682046
H       -1.3560826169   -2.3200381247    0.5168753354
H        1.4283697268    1.5630867713    0.0840883159
12   
torsion grid (-45,)
C       -0.4068688378   -0.4990694001   -0.1713465908
C       -0.9445276836   -1.8945213840   -0.3828957906
C        1.2710927386    1.4114392384    1.1133000761
O        0.0559951377    0.2326191255   -1.0122908218
O       -0.5235687412   -0.2039330401    1.1666551806
O       -0.0065930340    1.0758613025    1.6231282353
F        2.1230663326    0.3610546632    1.2322689246
F        1.6652687167    2.3984124927    1.9477149035
H       -0.0927340994   -2.5730923669   -0.4880478542
H       -1.5112387077   -1.9040014488   -1.3155210565
H       -1.5659008056   -2.2298299481    0.4478491494
H        1.2624448504    1.7602986824    0.0849268898
12   
torsion grid (-30,)
C       -0.3633777244   -0.5300764173   -0.1634188193
C       -0.9656866982   -1.8989805504   -0.3822926962
C        1.2585582726    1.4371157324    1.1052281793
O        0.1784941131    0.1585914913   -0.9935370508
O       -0.5477849203   -0.2079874614    1.1590275408
O        0.0500296634    1.0072662072    1.7016904672
F        2.1786620487    0.4378667593    1.1185709529
F        1.6567685987    2.4083210473    1.9571578628
H       -0.1472188485   -2.6241377704   -0.4205816331
H       -1.4733208333   -1.8975440780   -1.3483118637
H       -1.6540004085   -2.1823690746    0.4142298235
H        1.1553126036    1.8271720312    0.0979784821
12   
torsion grid (-15,)
C       -0.3063690726   -0.5800558740   -0.1548250774
C       -1.0062282502   -1.8991883091   -0.3953927926
C        1.2527408678    1.4671881758    1.1091520976
O        0.3231775086    0.0555302399   -0.9646547600
O       -0.5323324956   -0.2363948306    1.1558113124
O        0.1355753950    0.9099219127    1.7721818758
F        2.2702003670    0.5709832278    1.0450812745
F        1.6057241873    2.4545789852    1.9646812078
H       -0.2469845374   -2.6871075225   -0.3934526801
H       -1.4677470637   -1.8644706742   -1.3836981651
H       -1.7502081733   -2.1217068818    0.3697085909
H        1.0488871340    1.8659594676    0.1211483616
12   
torsion grid (0,)
C       -0.2467321288   -0.6374267729   -0.1414109640
C       -1.0485271947   -1.8926405230   -0.4073907600
C        1.2452623531    1.4937775431    1.1106100046
O        0.4653503298   -0.0629586139   -0.9273041438
O       -0.4957848637   -0.2721246166    1.1600874454
O        0.2417145205    0.8037366888    1.8258864033
F        2.3605092771    0.7324229664    0.9852531377
F        1.5284875345    2.5110010604    1.9592924479
H       -0.3606016343   -2.7428695088   -0.3735558498
H       -1.4653449973   -1.8232624975   -1.4135833321
H       -1.8388368086   -2.0463735421    0.3275353783
H        0.9409394793    1.8719557328    0.1403214779
12   
torsion grid (15,)
C       -1.0784148997   -0.9932567222    0.1553029628
C       -0.6991348449   -1.8439341966   -1.0366569529
C       -0.9963587541    0.2418615191    2.7430479764
O       -2.1873454884   -0.8491587588    0.6089257194
O        0.0743747508   -0.4051414387    0.6148560632
O        0.0968970232    0.3691821831    1.8559912395
F       -0.6186426977    1.0611725630    3.7516512723
F       -1.0781065725   -1.0238823402    3.2268394311
H       -1.4473507643   -1.6896822336   -1.8163174631
H       -0.7353459311   -2.8919225925   -0.7246390041
H        0.2988045422   -1.6168535405   -1.4117132294
H       -1.9555544830    0.5447091564    2.3370258198
12   
torsion grid (30,)
C       -1.0856324769   -0.9241024614    0.1246595613
C       -0.7017316751   -1.8609897527   -0.9977161625
C       -0.9898737179    0.2121556673    2.7349131107
O       -2.2032124388   -0.6967176071    0.5200628283
O        0.0729185746   -0.3709391218    0.6124907590
O        0.0291396128    0.4859882356    1.7926109115
F       -0.6217588825    0.9941972224    3.7744378228
F       -0.9411998586   -1.0878604827    3.1255768731
H       -1.4000598737   -1.7084367068   -1.8226833522
H       -0.8164792580   -2.8858889528   -0.6326204945
H        0.3252389975   -1.7128615607   -1.3317494582
H       -1.9935271230    0.4585491193    2.4043314356
12   
torsion grid (45,)
C       -1.0896522591   -0.8786630099    0.0973330237
C       -0.7076729029   -1.8692691085   -0.9770971449
C       -0.9799130018    0.1870879471    2.7375981284
O       -2.2081215607   -0.5792325235    0.4383011431
O        0.0707832955   -0.3761458906    0.6366672419
O       -0.0489921004    0.5637777971    1.7395380347
F       -0.6330890933    0.9837444522    3.7722046581
F       -0.7979219721   -1.1104969226    3.0945027568
H       -1.3489447269   -1.6963349260   -1.8434617425
H       -0.9077461246   -2.8748082818   -0.5955986510
H        0.3430396257   -1.7942636000   -1.2576117990
H       -2.0179472991    0.3476976650    2.4619381855
12   
torsion grid (60,)
C       -1.0998433563   -0.8394542887    0.0602306248
C       -0.7252814089   -1.8658765977   -0.9816705726
C       -0.9547190305    0.1514535158    2.7628568770
O       -2.2100672270   -0.4507859934    0.3292425522
O        0.0561262607   -0.4256007190    0.6866775980
O       -0.1148817321    0.5860331695    1.7114782034
F       -0.7218453681    1.0658299737    3.7277103928
F       -0.5705581540   -1.0743716764    3.2046359032
H       -1.2740177162   -1.6368975153   -1.8974080136
H       -1.0487206082   -2.8479259838   -0.6246811643
H        0.3472592142   -1.8884926501   -1.1755923889
H       -2.0096289931    0.1291823638    2.5008338228
12   
torsion grid (75,)
C       -1.1840494547   -0.8879268955    0.0629848938
C       -0.7705902090   -1.8760783484   -0.9999280444
C       -0.8628528875    0.1389157162    2.7963815065
O       -2.3023182822   -0.5336432917    0.3390908815
O       -0.0360536432   -0.4287594158    0.6887329905
O       -0.2774383950    0.6504773084    1.6233130267
F       -1.0018307267    1.2303132153    3.5752993067
F       -0.0208638978   -0.7354673455    3.4099837422
H       -0.6824538169   -1.3400319881   -1.9500869705
H       -1.5527342671   -2.6301649659   -1.0959268914
H        0.1895295418   -2.3419151554   -0.7735493177
H       -1.8245220813   -0.3426252351    2.6280187111
12   
torsion grid (90,)
C       -1.2140044969   -0.8609101147    0.0099240603
C       -0.7904155363   -1.8799920192   -1.0180350269
C       -0.8199104508    0.1243273851    2.8385108724
O       -2.3138307208   -0.4074208098    0.1899637184
O       -0.0918746597   -0.5077862465    0.7537059760
O       -0.3574909775    0.6241647389    1.6128789683
F       -1.1403961366    1.2269486928    3.5431537947
F        0.1694389064   -0.5385099522    3.4954531780
H       -0.5586017619   -1.3520511722   -1.9483869985
H       -1.6235136485   -2.5598311118   -1.2003171749
H        0.0971043914   -2.4314478453   -0.7035182663
H       -1.6826830282   -0.5343979467    2.7309807333
12   
torsion grid (105,)
C       -1.2546805952   -0.8395755380   -0.0589590520
C       -0.7932873074   -1.8924794362   -1.0359065778
C       -0.7850717524    0.1216977262    2.8942577175
O       -2.3307611217   -0.3080609349   -0.0007687735
O       -0.1935364115   -0.5602380068    0.8019607080
O       -0.4841001586    0.5998972244    1.6146139893
F       -1.1799432920    1.2143236612    3.5769759152
F        0.3218552857   -0.3880836373    3.4978761419
H       -0.4295246383   -1.3881917403   -1.9366743686
H       -1.6463428949   -2.5162298808   -1.3055510487
H        0.0170461419   -2.5002133992   -0.6298659667
H       -1.5678313752   -0.6397524397    2.8863551502
12   
torsion grid (120,)
C       -1.2881218789   -0.8093345383   -0.1322326237
C       -0.7963659060   -1.9063015887   -1.0451324731
C       -0.7525782021    0.1145416272    2.9459518448
O       -2.3180811598   -0.1967052191   -0.2052343006
O       -0.3109462939   -0.5984325430    0.8399984192
O       -0.6303377783    0.5713959088    1.6315617004
F       -1.2131667101    1.1785675382    3.6332303694
F        0.4576903626   -0.2365141627    3.4580297001
H       -0.3059870265   -1.4420012088   -1.9063764591
H       -1.6572629062   -2.4747122868   -1.3991889866
H       -0.0780203023   -2.5619206694   -0.5502223907
H       -1.4330003180   -0.7354892589    3.0339290348
12   
torsion grid (135,)
C       -1.2785201805   -0.7623704971   -0.2045723227
C       -0.7969086634   -1.9186333548   -1.0486778683
C       -0.7415057032    0.1008843977    2.9917790119
O       -2.2141957530   -0.0410695813   -0.4165141563
O       -0.4224122209   -0.6482335228    0.8870108573
O       -0.7618605177    0.5297589277    1.6638173558
F       -1.2425064629    1.1381982638    3.6922083952
F        0.5310977813   -0.1274025042    3.4154110033
H       -0.3278917470   -1.5107064032   -1.9488611429
H       -1.6641673751   -2.5077624305   -1.3526526677
H       -0.0746335909   -2.5455407108   -0.5243197188
H       -1.3326736861   -0.8040289860    3.1496850880
12   
torsion grid (150,)
C       -1.2890500176   -0.7474156375   -0.2472581138
C       -0.8011223159   -1.9265653083   -1.0557354655
C       -0.7186283086    0.0991936165    3.0233279431
O       -2.1432341268    0.0412809295   -0.5456018052
O       -0.5496269756   -0.7035633809    0.9285557786
O       -0.9184323384    0.4758346602    1.6950429597
F       -1.2576082317    1.1022320584    3.7457598693
F        0.6073947566    0.0222902169    3.3200528762
H       -0.2124108108   -1.5445669844   -1.8948666228
H       -1.6703641407   -2.4497349252   -1.4586523887
H       -0.1840460889   -2.6089122612   -0.4697703439
H       -1.1890495210   -0.8569793855    3.2634591479
12   
torsion grid (165,)
C       -0.9626678974   -0.3517438155   -0.1757220783
C       -1.0670169789   -1.7562975903   -0.7230955903
C        1.6445827659    1.1388643751    1.5602056290
O       -1.8178590033    0.4906629806   -0.1588519637
O        0.3245323421   -0.1772341658    0.3101273388
O        0.4766243523    1.1860289242    0.7990330234
F        1.6787985542    2.3248643832    2.2014742542
F        2.7465243069    1.0476501496    0.7671069980
H       -1.2555204287   -1.6891780145   -1.7978884186
H       -1.9276579998   -2.2421596306   -0.2576652922
H       -0.1651816675   -2.3439830009   -0.5480159107
H        1.6512775208    0.3077633216    2.2690332559
12   
torsion grid (180,)
C       -0.9649278308   -0.3479365026   -0.1880405758
C       -1.0679704931   -1.7584051590   -0.7206591530
C        1.6584437088    1.1396266403    1.5542186880
O       -1.7787396976    0.5295220838   -0.2841949829
O        0.2604511478   -0.2181001646    0.4457350459
O        0.4023303074    1.1424986615    0.9478712349
F        1.7067819995    2.3012295683    2.2379774829
F        2.6527740895    1.1451973673    0.6254321049
H       -1.1339801541   -1.7061842509   -1.8106114811
H       -1.9946030041   -2.1989932182   -0.3454867955
H       -0.2174541720   -2.3790436210   -0.4364561699
H        1.8033299655    0.2858265118    2.2199558471
