27   
torsion grid (-90,)
C       -2.1202784455   -0.6828556494    1.5133347911
C       -0.5740655357   -3.8480076638    2.6723594251
C       -1.7269970698   -3.9077385256    1.6915562569
C        0.6360183226    1.9804257036    0.9568076011
C        0.1539099006    0.0922868863   -0.7886860485
C       -1.6417153732   -2.7809671314    2.6916401714
C        0.4400536560    1.7704958070   -0.7358353901
C       -1.5455007167    0.6918620921    1.1365535683
N       -0.1083950618    0.7782512825    1.2661505965
N       -1.2811028320   -1.4698801132    2.2315728745
O       -3.2635986716   -0.9839172967    1.1779402375
O        0.8275087430   -0.0091699478    0.4404859462
O       -0.4629804703    2.6665910866   -1.3428486472
H       -0.5496924377   -4.5535170192    3.4972302991
H        0.4006673243   -3.5687449319    2.2821844678
H       -1.5226217982   -3.6565588103    0.6562657117
H       -2.5034761008   -4.6513475871    1.8397215050
H        1.6588500414    1.9161048592    1.3166806806
H        0.1449998370    2.9067365680    1.2758315285
H       -0.8637943079   -0.2918167680   -0.8300766654
H        0.7680998538   -0.3658135753   -1.5671474620
H       -2.3577159843   -2.7950646558    3.5100956501
H        1.3856376201    1.9199408490   -1.2621007928
H       -2.0088135474    0.9668213114    0.1796036873
H       -1.9096106430    1.4087534830    1.8812010501
H       -0.3685669161   -1.0818391318    2.4483251090
H       -1.3303185405    2.5877077351   -0.9174684826
27   
torsion grid (-75,)
C       -2.1112470786   -0.7439823325    1.5273533463
C       -0.5847181005   -3.8909697782    2.7523228854
C       -1.7383473389   -3.9619372154    1.7731556157
C        0.6333882907    1.9252924763    0.8989199799
C        0.2198341731    0.2570520848   -0.9094674131
C       -1.6466708691   -2.8178024374    2.7527286321
C        0.5138036339    1.8297734073   -0.7216431695
C       -1.5377646592    0.6244875777    1.1297649073
N       -0.0938732326    0.7023059652    1.2314480176
N       -1.2798002147   -1.5171902281    2.2690503688
O       -3.2546324676   -1.0492302372    1.1950081287
O        0.7383141831   -0.1228829442    0.3636375669
O       -0.4232748648    2.7271258479   -1.2991611896
H       -0.5637360759   -4.5815840281    3.5898600710
H        0.3912531770   -3.6243888735    2.3563491407
H       -1.5330304070   -3.7296766067    0.7337235920
H       -2.5187120493   -4.6986171458    1.9350431168
H        1.6529487682    1.8517218048    1.2714995198
H        0.1460685209    2.8326490809    1.2697734125
H       -0.8187125107   -0.0257791060   -1.0856267018
H        0.8554594652   -0.1897270855   -1.6768169518
H       -2.3621591890   -2.8139205733    3.5718204834
H        1.4628266890    2.0717756817   -1.2046421809
H       -2.0076633648    0.8834919400    0.1718809227
H       -1.9004557715    1.3523935435    1.8637760965
H       -0.3631488400   -1.1337830081    2.4739371643
H       -1.3024311131    2.5527244912   -0.9287448309
27   
torsion grid (-60,)
C       -2.1271405351   -0.7709631840    1.5346237914
C       -0.6340498522   -3.9127591790    2.8007993439
C       -1.8095325907   -3.9801247980    1.8475428500
C        0.6025388363    1.8834220439    0.8836090364
C        0.2929567003    0.4473107499   -1.0619027878
C       -1.6774318557   -2.8213259586    2.8049130511
C        0.5450465899    1.9551025473   -0.6931374621
C       -1.5349157120    0.5715002856    1.0830674156
N       -0.0815507962    0.6192607885    1.1645536257
N       -1.3006093941   -1.5349283963    2.2921776249
O       -3.2822169674   -1.0640899937    1.2325288197
O        0.6048105305   -0.1935955032    0.1835223504
O       -0.4235613455    2.8619576401   -1.2118847171
H       -0.6065347328   -4.5892955847    3.6496253717
H        0.3376432763   -3.6707030768    2.3791948587
H       -1.6225012239   -3.7686764750    0.8002748707
H       -2.5985289858   -4.7004960001    2.0385162642
H        1.6260522252    1.8019353152    1.2513819062
H        0.1032585132    2.7406656248    1.3416711379
H       -0.7306283445    0.2567075216   -1.3985005423
H        0.9937009895    0.0632922191   -1.8049336862
H       -2.3743783830   -2.7922364205    3.6393276890
H        1.4937192767    2.3032199657   -1.1059539066
H       -1.9839755090    0.7856231073    0.1049069849
H       -1.8991191968    1.3364775123    1.7768302222
H       -0.3677256037   -1.1706490698    2.4540243052
H       -1.3078372140    2.5786242019   -0.9303561173
27   
torsion grid (-45,)
C       -2.1175779272   -0.8181225892    1.5728735298
C       -0.6346177070   -3.9720531892    2.8252030971
C       -1.8543339081   -4.0289746492    1.9284102720
C        0.5657833884    1.8357922372    0.8377939001
C        0.3930523372    0.5073352204   -1.1567086688
C       -1.6521164995   -2.8567964954    2.8566474738
C        0.5548133491    1.9821705120   -0.7071701886
C       -1.5209455183    0.5031161540    1.0717424571
N       -0.0580702720    0.5347392656    1.1150433190
N       -1.2716015928   -1.5887784271    2.3027030019
O       -3.2919669041   -1.0917073343    1.3327652495
O        0.4932504599   -0.2760828372    0.0520692966
O       -0.4521860384    2.8541525196   -1.2172256286
H       -0.5829566600   -4.6339003551    3.6844533656
H        0.3217227894   -3.7603984606    2.3549239818
H       -1.7116037175   -3.8400353974    0.8699363620
H       -2.6494510632   -4.7274265692    2.1690198630
H        1.5909431482    1.7981986679    1.2147115606
H        0.0300871270    2.6503269150    1.3291721310
H       -0.5713543439    0.3580732791   -1.6578380852
H        1.1904695663    0.1570893560   -1.8143575968
H       -2.3088283340   -2.7970910923    3.7215694848
H        1.4912138290    2.4136688172   -1.0640171154
H       -1.9601521256    0.6787317820    0.0806612122
H       -1.8830422481    1.2933987672    1.7373415371
H       -0.3256788494   -1.2411543183    2.4183869030
H       -1.3263209347    2.4956021238   -0.9947797226
27   
torsion grid (-30,)
C       -2.0769833411   -0.8353649767    1.6461213874
C       -0.5884189542   -4.0224193871    2.8059812429
C       -1.8665257436   -4.0511280499    1.9931074514
C        0.5837633589    1.8001601109    0.8166806766
C        0.6042088613    0.5156169602   -1.1934155911
C       -1.5741326752   -2.8823515741    2.9012439361
C        0.5731220339    1.9793808009   -0.7120907588
C       -1.4870690485    0.4727345557    1.1049545502
N       -0.0201618264    0.4882570114    1.0861558843
N       -1.2007974333   -1.6261172135    2.3168546611
O       -3.2701939606   -1.0840437052    1.4845038778
O        0.4240057962   -0.3283759175   -0.0261272728
O       -0.5320285500    2.7333001395   -1.2103669628
H       -0.4956396579   -4.6836952375    3.6622239963
H        0.3391401440   -3.8350212370    2.2721077642
H       -1.7908228266   -3.8674909738    0.9268304053
H       -2.6604527209   -4.7293563038    2.2891169856
H        1.6147549003    1.7762612985    1.1838274662
H        0.0417030166    2.5960005771    1.3298358621
H       -0.1923376543    0.3360118864   -1.9246812766
H        1.5632557181    0.2330174591   -1.6345155786
H       -2.1700192724   -2.8044870529    3.8078475956
H        1.4504858690    2.5336859387   -1.0486903177
H       -1.9491734501    0.6275551439    0.1200655042
H       -1.8260718604    1.2760198679    1.7670813757
H       -0.2444369234   -1.2940219634    2.3802643946
H       -1.3573823882    2.2642068733   -1.0094997022
27   
torsion grid (-15,)
C       -2.1148767633   -0.7857936135    1.6870004274
C       -0.6024157338   -4.0209417656    2.6723886251
C       -1.9341886755   -4.0124456191    1.9500879053
C        0.5370837482    1.8267868105    0.7535892431
C        0.7343662512    0.5486619074   -1.2209690600
C       -1.5600627369   -2.8684756216    2.8598136098
C        0.5398777615    1.9994540006   -0.7729068572
C       -1.5418601415    0.5230117937    1.1290084061
N       -0.0816411108    0.5196495710    1.0165960850
N       -1.2075541478   -1.6054612943    2.2773220860
O       -3.3209339005   -1.0113075726    1.6083601959
O        0.2589145557   -0.3001354655   -0.1455970029
O       -0.6333084590    2.6260682621   -1.2902256090
H       -0.4614222763   -4.7022583031    3.5060547683
H        0.2887954465   -3.8360414589    2.0790234039
H       -1.9295577346   -3.8063163102    0.8852353620
H       -2.7168685679   -4.6849738037    2.2863450972
H        1.5668743906    1.8039333296    1.1269166533
H       -0.0074167361    2.6249854597    1.2598327869
H        0.1678576201    0.3263677958   -2.1301309314
H        1.7926656651    0.3205678019   -1.3887796627
H       -2.0903207605   -2.8018286306    3.8071572363
H        1.3637214760    2.6353232805   -1.1018267954
H       -2.0645411942    0.7013380366    0.1793873967
H       -1.8261613813    1.3186846589    1.8250343344
H       -0.2431371742   -1.2913260171    2.2771829600
H       -1.3960685232    2.0424694826   -1.1537442974
27   
torsion grid (0,)
C       -2.0999914529   -0.7621791704    1.8276765638
C       -0.5485260676   -4.0367314822    2.5957522289
C       -1.9268044996   -3.9949310176    1.9681214815
C        0.4905608320    1.8638104295    0.7480747298
C        0.8089306329    0.5093180210   -1.1340842845
C       -1.4818875833   -2.8864430877    2.8898513540
C        0.5239710385    1.9650066703   -0.7836070109
C       -1.5562884440    0.5625535236    1.2803623014
N       -0.1112798449    0.5511283759    1.0531699510
N       -1.1605296511   -1.6054589025    2.3294765695
O       -3.3097774162   -0.9809563861    1.8227728374
O        0.1069307438   -0.2763638620   -0.1521400833
O       -0.6860888957    2.4664602977   -1.3473306459
H       -0.3558901267   -4.7485375331    3.3928266834
H        0.3011541475   -3.8353819400    1.9491869600
H       -1.9941809720   -3.7503405111    0.9135941328
H       -2.6895928589   -4.6750312095    2.3336208367
H        1.5097183517    1.8895436558    1.1489112003
H       -0.0898472735    2.6710398900    1.1970073338
H        0.4324522265    0.2272209525   -2.1205061928
H        1.8848036885    0.2973534274   -1.0777296368
H       -1.9449607232   -2.8515843168    3.8734702265
H        1.3133994115    2.6345350499   -1.1309110628
H       -2.1482078208    0.8009047874    0.3872003464
H       -1.7657683389    1.3280372311    2.0342715910
H       -0.1959046897   -1.2972207285    2.2737029583
H       -1.3678162387    1.7780427472   -1.2898857767
27   
torsion grid (15,)
C       -2.1703119497   -0.6938100886    1.7295239122
C       -0.6716500468   -4.0219762594    2.3192986449
C       -2.0771922602   -3.9205614313    1.7634325136
C        0.4041828126    1.9318549616    0.5886666779
C        0.8875342189    0.4513311579   -1.1551804791
C       -1.5598959297   -2.8629208537    2.7062623009
C        0.5954199052    1.9292552833   -0.9342437653
C       -1.6172725985    0.6370981087    1.2093111696
N       -0.1840620794    0.6093156013    0.9250304090
N       -1.2331466765   -1.5677178092    2.1825768222
O       -3.3833649896   -0.8914051926    1.7511539195
O       -0.0466646615   -0.2182489011   -0.3018600381
O       -0.5612378514    2.3687258284   -1.6422493660
H       -0.4594646593   -4.7713424673    3.0760066839
H        0.1509310721   -3.8135816223    1.6407366864
H       -2.1910527436   -3.6306612374    0.7245725463
H       -2.8381988057   -4.5972335180    2.1388882586
H        1.3688062552    2.0314515051    1.0965658849
H       -0.2505249591    2.7473181814    0.9016904978
H        0.6884204346    0.1186082772   -2.1760673287
H        1.9204420803    0.2012437226   -0.8747284003
H       -1.9726105500   -2.8587055921    3.7127285793
H        1.4131518241    2.5806982538   -1.2481084795
H       -2.2308563157    0.9313583736    0.3474691340
H       -1.7758941342    1.3763089667    2.0010452312
H       -0.2645389633   -1.2776144747    2.1050213405
H       -1.2356564158    1.6719025042   -1.5769533009
27   
torsion grid (30,)
C       -2.2415749800   -0.6200210839    1.8828169086
C       -0.7306960157   -3.9772732207    2.2748240943
C       -2.1798619156   -3.8558720679    1.8505117829
C        0.2420783118    2.0171220477    0.5667708966
C        0.7943060798    0.4246663945   -1.0759535488
C       -1.5675849804   -2.8147247216    2.7543529151
C        0.6261605555    1.9320317968   -0.9201656670
C       -1.7226725966    0.7134550994    1.3353506718
N       -0.3262333584    0.6806137266    0.9144510559
N       -1.2763244306   -1.5165678786    2.2178620941
O       -3.4487043784   -0.8016958332    2.0261462230
O       -0.3172845325   -0.0958108784   -0.3479059063
O       -0.3934138605    2.4401282651   -1.7771936823
H       -0.4577735148   -4.7377517850    3.0002903681
H        0.0283707778   -3.7685626860    1.5259027393
H       -2.3836934682   -3.5515129375    0.8296661191
H       -2.9109076486   -4.5298987395    2.2854669011
H        1.1176558828    2.1975725773    1.1969337729
H       -0.4807403984    2.8236550633    0.7174947376
H        0.6964259227    0.0826315348   -2.1077181122
H        1.7431724667    0.0736380570   -0.6454049527
H       -1.8871323540   -2.8191794518    3.7941472717
H        1.5295052983    2.4993254782   -1.1500338920
H       -2.4031948761    1.0317329769    0.5337930544
H       -1.7981456708    1.4414316628    2.1493130867
H       -0.3164073789   -1.2339893277    2.0534163705
H       -1.1470984296    1.8270473774   -1.7263134364
27   
torsion grid (45,)
C       -2.2177231057   -0.6607642260    1.9887415330
C       -0.6274246064   -4.0001540919    2.1728389879
C       -2.1145255484   -3.8954216932    1.9040259184
C        0.0741340124    2.0311302786    0.4827883407
C        0.7092208244    0.3207988724   -1.0533123314
C       -1.4256198583   -2.8565679543    2.7535539157
C        0.7884696203    1.8404471234   -0.8776791559
C       -1.7752816804    0.6875648450    1.4128697567
N       -0.4315507466    0.6838487192    0.8504600741
N       -1.2103280259   -1.5474159149    2.2081474006
O       -3.4010101867   -0.8646400231    2.2505913077
O       -0.5298162665   -0.0242693687   -0.4365973986
O        0.1405053233    2.5460465606   -1.9332774482
H       -0.2694102407   -4.7654719976    2.8549177363
H        0.0460745231   -3.7707889557    1.3515692495
H       -2.4285508996   -3.5814068355    0.9145605056
H       -2.7864785862   -4.5858678658    2.4036712150
H        0.7443393313    2.3784188309    1.2729898363
H       -0.7348036427    2.7622436140    0.3559055681
H        0.6577810529    0.0177614732   -2.1002328212
H        1.5418591414   -0.1872137583   -0.5465989841
H       -1.6345435774   -2.8792510984    3.8209027414
H        1.8149029350    2.2100159995   -0.8694734060
H       -2.5315138885    1.0088733257    0.6840099278
H       -1.7772993961    1.4068662254    2.2384063992
H       -0.2756985381   -1.2439054736    1.9580614999
H       -0.7539704994    2.1761079589   -2.0267887183
27   
torsion grid (60,)
C       -2.2488354871   -0.6440344419    2.2230461098
C       -0.6098920394   -3.9685782729    2.1717245777
C       -2.1187233154   -3.8795009258    2.0701432070
C       -0.1998549552    2.0749382087    0.4679148256
C        0.4461072158    0.2401480903   -0.9541508934
C       -1.3520123349   -2.8425261047    2.8524350803
C        0.7844277330    1.7353545613   -0.6916155696
C       -1.8936506213    0.7168875280    1.6184241093
N       -0.6202229173    0.7373671834    0.9081746808
N       -1.2144676893   -1.5240977211    2.3038903539
O       -3.3891465099   -0.8671602507    2.6225286646
O       -0.8642873370    0.1114408523   -0.3987150890
O        0.6134450410    2.5755182492   -1.8270235697
H       -0.1699576123   -4.7373810487    2.7997793125
H       -0.0340090975   -3.7213431081    1.2840360613
H       -2.5435471772   -3.5574460248    1.1256195817
H       -2.7235486894   -4.5845393240    2.6313149483
H        0.2723076023    2.6131211797    1.2931767456
H       -1.0441574016    2.6631485824    0.0787282602
H        0.3921588003    0.0078129576   -2.0192824771
H        1.1446046556   -0.4347725309   -0.4452056036
H       -1.4413371835   -2.8807675827    3.9359100946
H        1.8267381739    1.8676721425   -0.3962117739
H       -2.7280352496    1.0308909924    0.9779552634
H       -1.8174733393    1.4315679636    2.4445326811
H       -0.3145534119   -1.2021152274    1.9662201266
H       -0.3062761066    2.4876798012   -2.1281387750
27   
torsion grid (75,)
C       -2.2272831577   -0.6176995041    2.1924522639
C       -0.5621897195   -3.9318957193    2.0260023768
C       -2.0726252228   -3.8534046522    1.9426802711
C       -0.2913171453    2.1378073877    0.3668789572
C        0.3799688593    0.1407711131   -0.8904502711
C       -1.3063221373   -2.8280793023    2.7402460560
C        0.8173397350    1.6567246540   -0.6623987803
C       -1.8887839320    0.7674443249    1.6376004542
N       -0.6490583498    0.8038409642    0.8605841020
N       -1.1872726692   -1.4967462074    2.2186367936
O       -3.3576749389   -0.8654262111    2.6040408797
O       -0.9833383556    0.2662148094   -0.4739037887
O        0.8562447854    2.4201371989   -1.8577456883
H       -0.1092887309   -4.7108973062    2.6318277052
H        0.0022616399   -3.6602192402    1.1381021207
H       -2.5104995312   -3.5131699210    1.0105777526
H       -2.6652786213   -4.5762230025    2.4940635887
H        0.1215088033    2.7646957895    1.1623176932
H       -1.1280420068    2.6436114022   -0.1297226708
H        0.4057749269   -0.1279089001   -1.9492459738
H        0.9270762716   -0.5829860188   -0.2813113620
H       -1.3837467112   -2.8910506654    3.8235233063
H        1.8163271626    1.7421954150   -0.2296952899
H       -2.7515347236    1.1194734107    1.0592880280
H       -1.7567915037    1.4417151695    2.4908371370
H       -0.2880372891   -1.1532130511    1.9024406570
H       -0.0252413085    2.3810535195   -2.2644810082
27   
torsion grid (90,)
C       -2.2061486930   -0.5898525270    2.2277219567
C       -0.4792189875   -3.8771920568    2.0132033899
C       -1.9882052913   -3.8228245225    1.8941757768
C       -0.3582119447    2.2162544908    0.4071333565
C        0.2197479966    0.0196462543   -0.7790507740
C       -1.2601832556   -2.8011820819    2.7307766892
C        0.8067172169    1.5720306458   -0.5813448762
C       -1.8740300797    0.8204178583    1.7388010554
N       -0.6710922093    0.8833521050    0.8965520177
N       -1.1536181045   -1.4578601862    2.2367334054
O       -3.3380821315   -0.8728231983    2.6094817846
O       -1.0996916024    0.4465271496   -0.4623882840
O        0.9764379166    2.2417078511   -1.8117886160
H       -0.0277891327   -4.6603677778    2.6146646785
H        0.1024575030   -3.5784786228    1.1453535419
H       -2.4096673379   -3.4709798126    0.9588199615
H       -2.5811609928   -4.5666774024    2.4164040072
H        0.0886908626    2.8557875396    1.1749320344
H       -1.1793275232    2.7150176860   -0.1143601537
H        0.2743361185   -0.2704555561   -1.8326530786
H        0.6103087770   -0.7524235345   -0.1172044494
H       -1.3633257944   -2.8870047722    3.8104025108
H        1.7757589771    1.6157789905   -0.0779513063
H       -2.7599722479    1.2183968724    1.2319209645
H       -1.6798062633    1.4418947722    2.6208332655
H       -0.2466447513   -1.0851805684    1.9835975865
H        0.1190749586    2.2419437266   -2.2687794671
