
  -OEChem-12102412493D

 18 17  0     0  0  0  0  0  0999 V2000
    1.8483    0.4428   -0.1742 O   0  0  0  0  0  0  0  0  0  0  0  0
    0.4708    0.4208    0.1653 C   0  0  0  0  0  0  0  0  0  0  0  0
   -0.2451   -0.8511   -0.3129 C   0  0  0  0  0  0  0  0  0  0  0  0
    0.3467   -2.1655    0.2209 C   0  0  0  0  0  0  0  0  0  0  0  0
    0.3226   -2.3111    1.7541 C   0  0  0  0  0  0  0  0  0  0  0  0
    1.9851   -2.2202    2.5213 S   0  0  0  0  0  0  0  0  0  0  0  0
    1.7318   -2.3191    3.9839 O   0  0  0  0  0  0  0  0  0  0  0  0
    2.7412   -3.3590    1.9301 O   0  0  0  0  0  0  0  0  0  0  0  0
    2.5268   -0.8760    2.1061 O   0  5  0  0  0  0  0  0  0  0  0  0
   -0.2794   -1.5372    2.2398 H   0  0  0  0  0  0  0  0  0  0  0  0
   -0.0673   -3.2838    2.0648 H   0  0  0  0  0  0  0  0  0  0  0  0
    1.3754   -2.2703   -0.1366 H   0  0  0  0  0  0  0  0  0  0  0  0
   -0.2088   -2.9989   -0.2265 H   0  0  0  0  0  0  0  0  0  0  0  0
   -0.2094   -0.8727   -1.4107 H   0  0  0  0  0  0  0  0  0  0  0  0
   -1.3072   -0.7785   -0.0292 H   0  0  0  0  0  0  0  0  0  0  0  0
    0.0008    1.2920   -0.3123 H   0  0  0  0  0  0  0  0  0  0  0  0
    0.3470    0.5348    1.2512 H   0  0  0  0  0  0  0  0  0  0  0  0
    2.2978   -0.0536    0.5539 H   0  0  0  0  0  0  0  0  0  0  0  0
  1  2  1  0  0  0  0
  1 18  1  0  0  0  0
  2  3  1  0  0  0  0
  2 16  1  0  0  0  0
  2 17  1  0  0  0  0
  3  4  1  0  0  0  0
  3 14  1  0  0  0  0
  3 15  1  0  0  0  0
  4  5  1  0  0  0  0
  4 12  1  0  0  0  0
  4 13  1  0  0  0  0
  5  6  1  0  0  0  0
  5 10  1  0  0  0  0
  5 11  1  0  0  0  0
  6  7  2  0  0  0  0
  6  8  2  0  0  0  0
  6  9  1  0  0  0  0
M  CHG  1   9  -1
M  END
$$$$
