
  -OEChem-12122420533D

 48 49  0     1  0  0  0  0  0999 V2000
    0.8088   -8.3553    0.0925 N   0  0  0  0  0  0  0  0  0  0  0  0
   -0.6457   -8.4710   -0.4285 S   0  0  2  0  0  0  0  0  0  0  0  0
   -1.0254   -8.2471   -1.8462 O   0  0  0  0  0  0  0  0  0  0  0  0
   -1.8265   -7.4882    0.5533 C   0  0  0  0  0  0  0  0  0  0  0  0
   -2.9239   -8.0375    1.2081 C   0  0  0  0  0  0  0  0  0  0  0  0
   -3.1169   -9.1033    1.1539 H   0  0  0  0  0  0  0  0  0  0  0  0
   -3.8170   -7.2481    1.9365 C   0  0  0  0  0  0  0  0  0  0  0  0
   -4.6773   -7.6939    2.4122 H   0  0  0  0  0  0  0  0  0  0  0  0
   -3.6047   -5.8651    2.0142 C   0  0  0  0  0  0  0  0  0  0  0  0
   -4.4531   -4.9799    2.6909 N   0  0  0  0  0  0  0  0  0  0  0  0
   -5.3617   -5.1891    3.7067 C   0  0  0  0  0  0  0  0  0  0  0  0
   -5.9631   -4.0600    4.1303 N   0  0  0  0  0  0  0  0  0  0  0  0
   -6.8387   -4.2194    5.1315 C   0  0  0  0  0  0  0  0  0  0  0  0
   -7.3365   -3.3225    5.4944 H   0  0  0  0  0  0  0  0  0  0  0  0
   -7.1173   -5.4515    5.6984 C   0  0  0  0  0  0  0  0  0  0  0  0
   -8.3816   -5.6161    7.1271 Br  0  0  0  0  0  0  0  0  0  0  0  0
   -6.4308   -6.5851    5.1916 C   0  0  0  0  0  0  0  0  0  0  0  0
   -6.6363   -7.8306    5.6781 N   0  0  0  0  0  0  0  0  0  0  0  0
   -5.9904   -9.0447    5.1761 C   0  0  2  0  0  0  0  0  0  0  0  0
   -6.9484  -10.2266    5.3437 C   0  0  0  0  0  0  0  0  0  0  0  0
   -6.4707  -11.1553    5.0187 H   0  0  0  0  0  0  0  0  0  0  0  0
   -7.2485  -10.3555    6.3889 H   0  0  0  0  0  0  0  0  0  0  0  0
   -7.8511  -10.0751    4.7454 H   0  0  0  0  0  0  0  0  0  0  0  0
   -4.6078   -9.2985    5.8210 C   0  0  1  0  0  0  0  0  0  0  0  0
   -3.7177   -8.2019    5.6189 O   0  0  0  0  0  0  0  0  0  0  0  0
   -4.0077   -7.6881    4.8425 H   0  0  0  0  0  0  0  0  0  0  0  0
   -4.6610   -9.5579    7.3231 C   0  0  0  0  0  0  0  0  0  0  0  0
   -3.6408   -9.6470    7.7054 H   0  0  0  0  0  0  0  0  0  0  0  0
   -5.1395   -8.7209    7.8419 H   0  0  0  0  0  0  0  0  0  0  0  0
   -5.1959  -10.4829    7.5589 H   0  0  0  0  0  0  0  0  0  0  0  0
   -4.2017  -10.1925    5.3190 H   0  0  0  0  0  0  0  0  0  0  0  0
   -5.8233   -8.8857    4.1065 H   0  0  0  0  0  0  0  0  0  0  0  0
   -7.2615   -7.9106    6.4699 H   0  0  0  0  0  0  0  0  0  0  0  0
   -5.5490   -6.4263    4.1825 N   0  0  0  0  0  0  0  0  0  0  0  0
   -4.3301   -3.9932    2.4978 H   0  0  0  0  0  0  0  0  0  0  0  0
   -2.4994   -5.2957    1.3493 C   0  0  0  0  0  0  0  0  0  0  0  0
   -2.3342   -4.2262    1.4236 H   0  0  0  0  0  0  0  0  0  0  0  0
   -1.6196   -6.0940    0.6208 C   0  0  0  0  0  0  0  0  0  0  0  0
   -0.5290   -5.6165   -0.0412 O   0  0  0  0  0  0  0  0  0  0  0  0
   -0.3212   -4.2062   -0.0981 C   0  0  0  0  0  0  0  0  0  0  0  0
    0.5626   -4.0643   -0.7200 H   0  0  0  0  0  0  0  0  0  0  0  0
   -0.1361   -3.7925    0.9001 H   0  0  0  0  0  0  0  0  0  0  0  0
   -1.1776   -3.7023   -0.5602 H   0  0  0  0  0  0  0  0  0  0  0  0
   -1.0411  -10.1707    0.0188 C   0  0  0  0  0  0  0  0  0  0  0  0
   -2.0269  -10.4210   -0.3728 H   0  0  0  0  0  0  0  0  0  0  0  0
   -0.2739  -10.7620   -0.4824 H   0  0  0  0  0  0  0  0  0  0  0  0
   -0.9729  -10.3024    1.0981 H   0  0  0  0  0  0  0  0  0  0  0  0
    1.1531   -7.4058   -0.0593 H   0  0  0  0  0  0  0  0  0  0  0  0
  1  2  2  0  0  0  0
  1 48  1  0  0  0  0
  2  3  2  0  0  0  0
  2  4  1  0  0  0  0
  2 44  1  0  0  0  0
  4  5  2  0  0  0  0
  4 38  1  0  0  0  0
  5  6  1  0  0  0  0
  5  7  1  0  0  0  0
  7  8  1  0  0  0  0
  7  9  2  0  0  0  0
  9 10  1  0  0  0  0
  9 36  1  0  0  0  0
 10 11  1  0  0  0  0
 10 35  1  0  0  0  0
 11 12  1  0  0  0  0
 11 34  2  0  0  0  0
 12 13  2  0  0  0  0
 13 14  1  0  0  0  0
 13 15  1  0  0  0  0
 15 16  1  0  0  0  0
 15 17  2  0  0  0  0
 17 18  1  0  0  0  0
 17 34  1  0  0  0  0
 18 19  1  0  0  0  0
 18 33  1  0  0  0  0
 19 20  1  0  0  0  0
 19 24  1  0  0  0  0
 19 32  1  0  0  0  0
 20 21  1  0  0  0  0
 20 22  1  0  0  0  0
 20 23  1  0  0  0  0
 24 25  1  0  0  0  0
 24 27  1  0  0  0  0
 24 31  1  0  0  0  0
 25 26  1  0  0  0  0
 27 28  1  0  0  0  0
 27 29  1  0  0  0  0
 27 30  1  0  0  0  0
 36 37  1  0  0  0  0
 36 38  2  0  0  0  0
 38 39  1  0  0  0  0
 39 40  1  0  0  0  0
 40 41  1  0  0  0  0
 40 42  1  0  0  0  0
 40 43  1  0  0  0  0
 44 45  1  0  0  0  0
 44 46  1  0  0  0  0
 44 47  1  0  0  0  0
M  END
$$$$
