
  -OEChem-12122420533D

 48 49  0     1  0  0  0  0  0999 V2000
   -0.7231  -10.0480    0.2772 N   0  0  0  0  0  0  0  0  0  0  0  0
   -0.4767   -8.5623   -0.1047 S   0  0  2  0  0  0  0  0  0  0  0  0
    0.8478   -7.9160    0.0565 O   0  0  0  0  0  0  0  0  0  0  0  0
   -1.6990   -7.4808    0.6986 C   0  0  0  0  0  0  0  0  0  0  0  0
   -2.5734   -8.0534    1.6161 C   0  0  0  0  0  0  0  0  0  0  0  0
   -2.5355   -9.1310    1.7525 H   0  0  0  0  0  0  0  0  0  0  0  0
   -3.4804   -7.2876    2.3474 C   0  0  0  0  0  0  0  0  0  0  0  0
   -4.1492   -7.7455    3.0576 H   0  0  0  0  0  0  0  0  0  0  0  0
   -3.5163   -5.8985    2.1461 C   0  0  0  0  0  0  0  0  0  0  0  0
   -4.3750   -5.0263    2.8220 N   0  0  0  0  0  0  0  0  0  0  0  0
   -5.2977   -5.2341    3.8274 C   0  0  0  0  0  0  0  0  0  0  0  0
   -5.8932   -4.0994    4.2497 N   0  0  0  0  0  0  0  0  0  0  0  0
   -6.7918   -4.2568    5.2301 C   0  0  0  0  0  0  0  0  0  0  0  0
   -7.2894   -3.3579    5.5885 H   0  0  0  0  0  0  0  0  0  0  0  0
   -7.0935   -5.4915    5.7825 C   0  0  0  0  0  0  0  0  0  0  0  0
   -8.3862   -5.6562    7.1863 Br  0  0  0  0  0  0  0  0  0  0  0  0
   -6.4165   -6.6271    5.2694 C   0  0  0  0  0  0  0  0  0  0  0  0
   -6.6278   -7.8821    5.7462 N   0  0  0  0  0  0  0  0  0  0  0  0
   -6.0735   -9.0923    5.1162 C   0  0  2  0  0  0  0  0  0  0  0  0
   -6.9953  -10.2702    5.4299 C   0  0  0  0  0  0  0  0  0  0  0  0
   -6.6686  -11.1658    4.8975 H   0  0  0  0  0  0  0  0  0  0  0  0
   -6.9887  -10.4952    6.5009 H   0  0  0  0  0  0  0  0  0  0  0  0
   -8.0205  -10.0509    5.1149 H   0  0  0  0  0  0  0  0  0  0  0  0
   -4.6192   -9.3009    5.5986 C   0  0  1  0  0  0  0  0  0  0  0  0
   -4.5770   -9.5004    7.0171 O   0  0  0  0  0  0  0  0  0  0  0  0
   -4.8932   -8.6798    7.4295 H   0  0  0  0  0  0  0  0  0  0  0  0
   -3.9361  -10.4949    4.9471 C   0  0  0  0  0  0  0  0  0  0  0  0
   -2.8778  -10.5109    5.2197 H   0  0  0  0  0  0  0  0  0  0  0  0
   -4.3842  -11.4350    5.2807 H   0  0  0  0  0  0  0  0  0  0  0  0
   -4.0107  -10.4379    3.8560 H   0  0  0  0  0  0  0  0  0  0  0  0
   -4.0635   -8.3906    5.3415 H   0  0  0  0  0  0  0  0  0  0  0  0
   -6.0491   -8.9211    4.0349 H   0  0  0  0  0  0  0  0  0  0  0  0
   -7.4027   -7.9939    6.3883 H   0  0  0  0  0  0  0  0  0  0  0  0
   -5.5181   -6.4719    4.2808 N   0  0  0  0  0  0  0  0  0  0  0  0
   -4.3030   -4.0447    2.5829 H   0  0  0  0  0  0  0  0  0  0  0  0
   -2.6517   -5.3098    1.1975 C   0  0  0  0  0  0  0  0  0  0  0  0
   -2.7005   -4.2380    1.0358 H   0  0  0  0  0  0  0  0  0  0  0  0
   -1.7503   -6.0884    0.4713 C   0  0  0  0  0  0  0  0  0  0  0  0
   -0.9210   -5.5905   -0.4852 O   0  0  0  0  0  0  0  0  0  0  0  0
   -0.8144   -4.1763   -0.6326 C   0  0  0  0  0  0  0  0  0  0  0  0
   -0.0375   -4.0169   -1.3806 H   0  0  0  0  0  0  0  0  0  0  0  0
   -0.5148   -3.7052    0.3104 H   0  0  0  0  0  0  0  0  0  0  0  0
   -1.7564   -3.7389   -0.9852 H   0  0  0  0  0  0  0  0  0  0  0  0
   -0.9934   -8.5048   -1.8272 C   0  0  0  0  0  0  0  0  0  0  0  0
   -0.9868   -7.4608   -2.1392 H   0  0  0  0  0  0  0  0  0  0  0  0
   -0.2591   -9.0888   -2.3844 H   0  0  0  0  0  0  0  0  0  0  0  0
   -1.9853   -8.9491   -1.9084 H   0  0  0  0  0  0  0  0  0  0  0  0
   -0.2561  -10.2537    1.1635 H   0  0  0  0  0  0  0  0  0  0  0  0
  1  2  2  0  0  0  0
  1 48  1  0  0  0  0
  2  3  2  0  0  0  0
  2  4  1  0  0  0  0
  2 44  1  0  0  0  0
  4  5  2  0  0  0  0
  4 38  1  0  0  0  0
  5  6  1  0  0  0  0
  5  7  1  0  0  0  0
  7  8  1  0  0  0  0
  7  9  2  0  0  0  0
  9 10  1  0  0  0  0
  9 36  1  0  0  0  0
 10 11  1  0  0  0  0
 10 35  1  0  0  0  0
 11 12  1  0  0  0  0
 11 34  2  0  0  0  0
 12 13  2  0  0  0  0
 13 14  1  0  0  0  0
 13 15  1  0  0  0  0
 15 16  1  0  0  0  0
 15 17  2  0  0  0  0
 17 18  1  0  0  0  0
 17 34  1  0  0  0  0
 18 19  1  0  0  0  0
 18 33  1  0  0  0  0
 19 20  1  0  0  0  0
 19 24  1  0  0  0  0
 19 32  1  0  0  0  0
 20 21  1  0  0  0  0
 20 22  1  0  0  0  0
 20 23  1  0  0  0  0
 24 25  1  0  0  0  0
 24 27  1  0  0  0  0
 24 31  1  0  0  0  0
 25 26  1  0  0  0  0
 27 28  1  0  0  0  0
 27 29  1  0  0  0  0
 27 30  1  0  0  0  0
 36 37  1  0  0  0  0
 36 38  2  0  0  0  0
 38 39  1  0  0  0  0
 39 40  1  0  0  0  0
 40 41  1  0  0  0  0
 40 42  1  0  0  0  0
 40 43  1  0  0  0  0
 44 45  1  0  0  0  0
 44 46  1  0  0  0  0
 44 47  1  0  0  0  0
M  END
$$$$
