48
0 1 BrC16H22N5O3S
N                    -1.362636101237    -8.843354232588     3.994119797741
S                    -1.919594946131    -8.258622167389     2.667015908868
O                    -1.174855117940    -7.302202787008     1.806501002452
C                    -3.566099224229    -7.543761758888     2.875999710637
C                    -4.405656077800    -8.035674553804     3.879375159839
H                    -4.047524097253    -8.819345875298     4.541761260733
C                    -5.682639412840    -7.508542570719     4.055501089156
H                    -6.318577739463    -7.888207152975     4.843256785574
C                    -6.127418446519    -6.467666327595     3.213999848009
N                    -7.378004787134    -5.854200400240     3.341394821681
C                    -8.498414391191    -6.251536532649     4.046416143052
N                    -9.454152122531    -5.305555098663     4.142691998875
C                   -10.538789770489    -5.670445047906     4.842248295521
H                   -11.332240355629    -4.931839547777     4.936793874160
C                   -10.670277263122    -6.915864364649     5.434048310843
Br                  -12.235958268502    -7.368838490618     6.442263149138
C                    -9.615536915752    -7.850044395405     5.255367593330
N                    -9.659844447342    -9.102208197409     5.767103250139
C                    -8.638962498359   -10.119626438126     5.558431297792
C                    -7.701249257203   -10.236072624182     6.762617618415
O                    -6.928726175507    -9.048434378742     6.836670169266
C                    -6.084641073168    -9.009771628085     7.977395611413
H                    -5.534495125565    -8.067327928965     7.935793000886
H                    -5.368632747003    -9.845188072157     7.976331261414
H                    -6.670026936811    -9.046428082725     8.907766767484
H                    -7.042706803228   -11.110506854486     6.632862752513
H                    -8.282190804876   -10.382961433232     7.683919206272
C                    -9.317432554272   -11.457657555935     5.238638216742
O                   -10.162777145999   -11.750237503130     6.367306626025
H                   -10.717624880745   -12.514850576176     6.148530738646
C                   -10.109273726303   -11.417725774825     3.934144704804
H                   -10.579031765863   -12.388677001715     3.737229546048
H                   -10.891957058070   -10.655451114707     3.977096860096
H                    -9.450064498459   -11.191189863492     3.089932287720
H                    -8.531940307537   -12.223498351860     5.162914577178
H                    -8.041503530740    -9.813636621818     4.697583438367
H                   -10.465469442144    -9.368963952758     6.320726553487
N                    -8.540798204867    -7.491298246496     4.535177994602
H                    -7.489664348357    -4.942500627035     2.914831147114
C                    -5.262600440363    -5.968440615842     2.218046627780
H                    -5.597776104957    -5.157900559605     1.574302042990
C                    -3.987906982116    -6.499563410028     2.048133371211
H                    -3.314967447191    -6.109464590909     1.291064544821
C                    -2.251171332549    -9.752648016937     1.717220975190
H                    -2.703400832098    -9.448879845313     0.772552048856
H                    -1.284816470118   -10.231813716030     1.552129946497
H                    -2.914435793528   -10.403141717288     2.286640419364
H                    -1.117535579124    -8.081538713077     4.631707982488
