18
-1 1 C4H9O4S
O                    -1.408172541063    -3.172829898061    -0.362453633240
C                    -1.549055675616    -1.821915373671     0.047688831088
C                    -0.336469206534    -0.953426147698    -0.318690212241
C                     1.003468436221    -1.436988235183     0.259042717040
C                     1.065716186525    -1.485099540189     1.797240099635
S                     1.110629848276    -3.188972708170     2.471907768576
O                     1.105980481428    -3.010542894739     3.948806649531
O                    -0.145416553382    -3.840956344000     1.952566914481
O                     2.352126242062    -3.789558938476     1.909621114608
H                     1.974545808375    -1.015927469138     2.182961353196
H                     0.208590257969    -0.993906050563     2.267560866240
H                     1.795858666651    -0.774709980604    -0.110769966706
H                     1.234315337327    -2.427697610885    -0.143733711643
H                    -0.535325297339     0.077657618225     0.014567904645
H                    -0.253856526370    -0.923790054274    -1.413793466687
H                    -1.732043821539    -1.772510733103     1.130137828561
H                    -2.438705195380    -1.417137236938    -0.454873268893
H                    -0.905939525806    -3.609805388253     0.369301530311
