
  -OEChem-12102412493D

 20 19  0     0  0  0  0  0  0999 V2000
   -3.5453    2.5276    1.1937 O   0  0  0  0  0  0  0  0  0  0  0  0
   -3.1038    1.5299   -0.0483 S   0  0  0  0  0  0  0  0  0  0  0  0
   -4.1194    0.4765   -0.1233 O   0  0  0  0  0  0  0  0  0  0  0  0
   -2.7885    2.3578   -1.2031 O   0  0  0  0  0  0  0  0  0  0  0  0
   -1.5683    0.8673    0.6359 C   0  0  0  0  0  0  0  0  0  0  0  0
   -0.9001   -0.0698   -0.3712 C   0  0  0  0  0  0  0  0  0  0  0  0
    0.4011   -0.6452    0.2070 C   0  0  0  0  0  0  0  0  0  0  0  0
    1.0556   -1.6010   -0.7909 C   0  0  0  0  0  0  0  0  0  0  0  0
    2.4066   -1.9936   -0.3143 N   0  0  0  0  0  0  0  0  0  0  0  0
    2.2183   -3.0819    1.1047 Cl  0  0  0  0  0  0  0  0  0  0  0  0
    3.1889   -2.9361   -1.6262 Cl  0  0  0  0  0  0  0  0  0  0  0  0
    0.4240   -2.4743   -0.9927 H   0  0  0  0  0  0  0  0  0  0  0  0
    1.2408   -1.0826   -1.7367 H   0  0  0  0  0  0  0  0  0  0  0  0
    1.1047    0.1623    0.4371 H   0  0  0  0  0  0  0  0  0  0  0  0
    0.1911   -1.1712    1.1430 H   0  0  0  0  0  0  0  0  0  0  0  0
   -1.5892   -0.8829   -0.6228 H   0  0  0  0  0  0  0  0  0  0  0  0
   -0.6922    0.4809   -1.2940 H   0  0  0  0  0  0  0  0  0  0  0  0
   -0.9461    1.7350    0.8690 H   0  0  0  0  0  0  0  0  0  0  0  0
   -1.8429    0.3553    1.5610 H   0  0  0  0  0  0  0  0  0  0  0  0
   -4.4387    2.2569    1.4825 H   0  0  0  0  0  0  0  0  0  0  0  0
  1  2  1  0  0  0  0
  1 20  1  0  0  0  0
  2  3  2  0  0  0  0
  2  4  2  0  0  0  0
  2  5  1  0  0  0  0
  5  6  1  0  0  0  0
  5 18  1  0  0  0  0
  5 19  1  0  0  0  0
  6  7  1  0  0  0  0
  6 16  1  0  0  0  0
  6 17  1  0  0  0  0
  7  8  1  0  0  0  0
  7 14  1  0  0  0  0
  7 15  1  0  0  0  0
  8  9  1  0  0  0  0
  8 12  1  0  0  0  0
  8 13  1  0  0  0  0
  9 10  1  0  0  0  0
  9 11  1  0  0  0  0
M  END
$$$$
