18
-1 1 C4H9O4S
O                     1.848253470674     0.442773150420    -0.174192717963
C                     0.470821574626     0.420816365550     0.165283982579
C                    -0.245144443821    -0.851057694728    -0.312858716422
C                     0.346704747939    -2.165539622314     0.220926823403
C                     0.322643420010    -2.311063328789     1.754057000824
S                     1.985086716781    -2.220155494217     2.521276022919
O                     1.731790271570    -2.319071552730     3.983858665327
O                     2.741220360038    -3.359000113555     1.930149766605
O                     2.526806311070    -0.875990540481     2.106087409378
H                    -0.279354670970    -1.537229983152     2.239768426218
H                    -0.067294502778    -3.283817504770     2.064823271179
H                     1.375425663531    -2.270257627391    -0.136555200525
H                    -0.208787815697    -2.998925650471    -0.226477728298
H                    -0.209372852854    -0.872742889979    -1.410678036403
H                    -1.307216578488    -0.778497058479    -0.029239104681
H                     0.000822468388     1.291971443433    -0.312303366107
H                     0.347048014612     0.534795162318     1.251248436557
H                     2.297845921428    -0.053618425779     0.553939021056
