48
0 1 BrC16H22N5O3S
N                    -0.244691198249    -7.300505223559    -1.913860316200
S                    -0.837985308382    -8.191883856318    -0.790527277935
O                    -1.441563014503    -9.520257114317    -1.072895274446
C                    -2.052843027219    -7.279308220744     0.202951509657
C                    -2.403259635784    -5.985566462579    -0.192302702018
H                    -1.889335878835    -5.541954042395    -1.040637716496
C                    -3.384378288389    -5.279128507356     0.491808689883
H                    -3.649028251821    -4.274229509339     0.171079833022
C                    -4.029726962766    -5.853152110770     1.607994856537
N                    -5.004674509492    -5.083469213123     2.246398323446
C                    -5.787693863496    -5.328866476649     3.357378312406
N                    -6.656084090996    -4.335217251661     3.634798311494
C                    -7.436233044932    -4.543383935024     4.704088730237
H                    -8.150132213613    -3.759854803446     4.949757747427
C                    -7.361535887445    -5.689795005292     5.478662474168
Br                   -8.505364535883    -5.933496155314     6.995956071040
C                    -6.408870516655    -6.675056178812     5.112222543708
N                    -6.228265488550    -7.816068657262     5.823582275624
C                    -5.358829358168    -8.911159010367     5.386176633153
C                    -6.081089045227    -9.838383096649     4.403611374100
H                    -5.421641285463   -10.649226249716     4.086725846651
H                    -6.965822820918   -10.284131646480     4.872539182242
H                    -6.404238353358    -9.273517873260     3.524715491980
C                    -4.817713486283    -9.656354793518     6.624481421596
O                    -4.016175120700   -10.768660413725     6.212535907634
H                    -3.169320066710   -10.422011769154     5.886362378202
C                    -4.049090826929    -8.742720538934     7.578019791905
H                    -3.669061096523    -9.323558124451     8.422986731024
H                    -3.197081020688    -8.279815153748     7.063552247163
H                    -4.678617917640    -7.935326102541     7.960944883669
H                    -5.660649469726   -10.116400129341     7.155862856436
H                    -4.507365149506    -8.445359179301     4.882343957522
H                    -6.929079565341    -8.019263223304     6.526840897123
N                    -5.632589721128    -6.471259811279     4.033012560565
H                    -5.209676422087    -4.181584793450     1.832903526780
C                    -3.656197893928    -7.143460747112     2.021548757005
H                    -4.117926224952    -7.589153585166     2.888563949275
C                    -2.675242132653    -7.846894547435     1.324094743832
O                    -2.272278063023    -9.078529125930     1.792491602019
C                    -3.158815560405   -10.168820339161     1.464605274126
H                    -2.742888919284   -11.051746191497     1.953078697637
H                    -3.178300812529   -10.316057659031     0.382045350527
H                    -4.165581855462    -9.973885038729     1.850899356727
C                     0.535573137486    -8.370336561954     0.355435087101
H                     0.157112385758    -8.882179117852     1.239909364873
H                     1.287072405485    -8.969057326174    -0.161894464959
H                     0.923661374252    -7.379422235919     0.590707767100
H                    -0.869695167918    -7.303808321249    -2.723164606063
