
  -OEChem-12122420533D

 48 49  0     1  0  0  0  0  0999 V2000
   -0.1659   -7.2124   -1.8982 N   0  0  0  0  0  0  0  0  0  0  0  0
   -0.7994   -8.1316   -0.8198 S   0  0  2  0  0  0  0  0  0  0  0  0
   -1.3957   -9.4500   -1.1604 O   0  0  0  0  0  0  0  0  0  0  0  0
   -2.0416   -7.2414    0.1588 C   0  0  0  0  0  0  0  0  0  0  0  0
   -2.3754   -5.9370   -0.2153 C   0  0  0  0  0  0  0  0  0  0  0  0
   -1.8370   -5.4759   -1.0388 H   0  0  0  0  0  0  0  0  0  0  0  0
   -3.3695   -5.2414    0.4604 C   0  0  0  0  0  0  0  0  0  0  0  0
   -3.6210   -4.2279    0.1567 H   0  0  0  0  0  0  0  0  0  0  0  0
   -4.0438   -5.8354    1.5491 C   0  0  0  0  0  0  0  0  0  0  0  0
   -5.0330   -5.0760    2.1748 N   0  0  0  0  0  0  0  0  0  0  0  0
   -5.8239   -5.3236    3.2816 C   0  0  0  0  0  0  0  0  0  0  0  0
   -6.7178   -4.3461    3.5302 N   0  0  0  0  0  0  0  0  0  0  0  0
   -7.5059   -4.5539    4.5951 C   0  0  0  0  0  0  0  0  0  0  0  0
   -8.2411   -3.7834    4.8179 H   0  0  0  0  0  0  0  0  0  0  0  0
   -7.4135   -5.6828    5.3913 C   0  0  0  0  0  0  0  0  0  0  0  0
   -8.5691   -5.9249    6.8985 Br  0  0  0  0  0  0  0  0  0  0  0  0
   -6.4303   -6.6513    5.0564 C   0  0  0  0  0  0  0  0  0  0  0  0
   -6.2274   -7.7687    5.7892 N   0  0  0  0  0  0  0  0  0  0  0  0
   -5.2923   -8.8282    5.4093 C   0  0  2  0  0  0  0  0  0  0  0  0
   -5.8894   -9.7431    4.3318 C   0  0  0  0  0  0  0  0  0  0  0  0
   -5.1448  -10.4546    3.9633 H   0  0  0  0  0  0  0  0  0  0  0  0
   -6.7415  -10.3017    4.7280 H   0  0  0  0  0  0  0  0  0  0  0  0
   -6.2262   -9.1393    3.4855 H   0  0  0  0  0  0  0  0  0  0  0  0
   -4.8911   -9.5572    6.6986 C   0  0  1  0  0  0  0  0  0  0  0  0
   -6.1176  -10.0214    7.2958 O   0  0  0  0  0  0  0  0  0  0  0  0
   -5.9154  -10.3889    8.1698 H   0  0  0  0  0  0  0  0  0  0  0  0
   -3.9066  -10.7013    6.4715 C   0  0  0  0  0  0  0  0  0  0  0  0
   -3.5698  -11.1111    7.4303 H   0  0  0  0  0  0  0  0  0  0  0  0
   -4.3713  -11.5102    5.9022 H   0  0  0  0  0  0  0  0  0  0  0  0
   -3.0205  -10.3529    5.9297 H   0  0  0  0  0  0  0  0  0  0  0  0
   -4.4324   -8.8078    7.3598 H   0  0  0  0  0  0  0  0  0  0  0  0
   -4.3962   -8.3431    5.0144 H   0  0  0  0  0  0  0  0  0  0  0  0
   -6.8943   -7.9967    6.5184 H   0  0  0  0  0  0  0  0  0  0  0  0
   -5.6465   -6.4489    3.9792 N   0  0  0  0  0  0  0  0  0  0  0  0
   -5.2465   -4.1793    1.7545 H   0  0  0  0  0  0  0  0  0  0  0  0
   -3.6869   -7.1370    1.9433 C   0  0  0  0  0  0  0  0  0  0  0  0
   -4.1683   -7.5979    2.7921 H   0  0  0  0  0  0  0  0  0  0  0  0
   -2.6956   -7.8310    1.2507 C   0  0  0  0  0  0  0  0  0  0  0  0
   -2.3159   -9.0791    1.6957 O   0  0  0  0  0  0  0  0  0  0  0  0
   -3.1901  -10.1530    1.2918 C   0  0  0  0  0  0  0  0  0  0  0  0
   -2.8036  -11.0523    1.7750 H   0  0  0  0  0  0  0  0  0  0  0  0
   -3.1560  -10.2695    0.2058 H   0  0  0  0  0  0  0  0  0  0  0  0
   -4.2139   -9.9619    1.6321 H   0  0  0  0  0  0  0  0  0  0  0  0
    0.5354   -8.3481    0.3649 C   0  0  0  0  0  0  0  0  0  0  0  0
    0.1262   -8.8818    1.2224 H   0  0  0  0  0  0  0  0  0  0  0  0
    1.3012   -8.9359   -0.1439 H   0  0  0  0  0  0  0  0  0  0  0  0
    0.9191   -7.3657    0.6398 H   0  0  0  0  0  0  0  0  0  0  0  0
   -0.7648   -7.1904   -2.7267 H   0  0  0  0  0  0  0  0  0  0  0  0
  1  2  2  0  0  0  0
  1 48  1  0  0  0  0
  2  3  2  0  0  0  0
  2  4  1  0  0  0  0
  2 44  1  0  0  0  0
  4  5  2  0  0  0  0
  4 38  1  0  0  0  0
  5  6  1  0  0  0  0
  5  7  1  0  0  0  0
  7  8  1  0  0  0  0
  7  9  2  0  0  0  0
  9 10  1  0  0  0  0
  9 36  1  0  0  0  0
 10 11  1  0  0  0  0
 10 35  1  0  0  0  0
 11 12  1  0  0  0  0
 11 34  2  0  0  0  0
 12 13  2  0  0  0  0
 13 14  1  0  0  0  0
 13 15  1  0  0  0  0
 15 16  1  0  0  0  0
 15 17  2  0  0  0  0
 17 18  1  0  0  0  0
 17 34  1  0  0  0  0
 18 19  1  0  0  0  0
 18 33  1  0  0  0  0
 19 20  1  0  0  0  0
 19 24  1  0  0  0  0
 19 32  1  0  0  0  0
 20 21  1  0  0  0  0
 20 22  1  0  0  0  0
 20 23  1  0  0  0  0
 24 25  1  0  0  0  0
 24 27  1  0  0  0  0
 24 31  1  0  0  0  0
 25 26  1  0  0  0  0
 27 28  1  0  0  0  0
 27 29  1  0  0  0  0
 27 30  1  0  0  0  0
 36 37  1  0  0  0  0
 36 38  2  0  0  0  0
 38 39  1  0  0  0  0
 39 40  1  0  0  0  0
 40 41  1  0  0  0  0
 40 42  1  0  0  0  0
 40 43  1  0  0  0  0
 44 45  1  0  0  0  0
 44 46  1  0  0  0  0
 44 47  1  0  0  0  0
M  END
$$$$
