15
0 1 C3H7O4P
O                    -1.138013657656    -1.915724485802    -2.300915424422
P                    -1.310187098885    -1.471384917921    -0.743988206047
O                    -0.764225990499    -2.466901053649     0.210152267384
O                    -2.892985473583    -1.147522056655    -0.663162208067
H                    -3.437693585586    -1.949690481793    -0.576791803487
C                    -0.678937689814     0.227978834708    -0.688791413986
H                    -1.220883586737     0.906177163416    -1.350338345659
O                     0.753491292107     0.350594835450    -0.735017953812
C                     0.069818752158     0.801158098840     0.454013726350
C                     0.363433415429     0.095311769030     1.752399734220
H                     1.315864604135     0.455764816074     2.154635957638
H                     0.412276694228    -0.985614341099     1.619666018672
H                    -0.421207660347     0.325484752374     2.481706521819
H                     0.026409504175     1.890157193617     0.515631327139
H                    -0.392953507916    -2.533891612913    -2.400867638373
