
  -OEChem-12102412493D

 15 15  0     1  0  0  0  0  0999 V2000
   -1.1380   -1.9157   -2.3009 O   0  0  0  0  0  0  0  0  0  0  0  0
   -1.3102   -1.4714   -0.7440 P   0  0  0  0  0  0  0  0  0  0  0  0
   -0.7642   -2.4669    0.2102 O   0  0  0  0  0  0  0  0  0  0  0  0
   -2.8930   -1.1475   -0.6632 O   0  0  0  0  0  0  0  0  0  0  0  0
   -3.4377   -1.9497   -0.5768 H   0  0  0  0  0  0  0  0  0  0  0  0
   -0.6789    0.2280   -0.6888 C   0  0  2  0  0  0  0  0  0  0  0  0
   -1.2209    0.9062   -1.3503 H   0  0  0  0  0  0  0  0  0  0  0  0
    0.7535    0.3506   -0.7350 O   0  0  0  0  0  0  0  0  0  0  0  0
    0.0698    0.8012    0.4540 C   0  0  2  0  0  0  0  0  0  0  0  0
    0.3634    0.0953    1.7524 C   0  0  0  0  0  0  0  0  0  0  0  0
    1.3159    0.4558    2.1546 H   0  0  0  0  0  0  0  0  0  0  0  0
    0.4123   -0.9856    1.6197 H   0  0  0  0  0  0  0  0  0  0  0  0
   -0.4212    0.3255    2.4817 H   0  0  0  0  0  0  0  0  0  0  0  0
    0.0264    1.8902    0.5156 H   0  0  0  0  0  0  0  0  0  0  0  0
   -0.3930   -2.5339   -2.4009 H   0  0  0  0  0  0  0  0  0  0  0  0
  1  2  1  0  0  0  0
  1 15  1  0  0  0  0
  2  3  2  0  0  0  0
  2  4  1  0  0  0  0
  2  6  1  0  0  0  0
  4  5  1  0  0  0  0
  6  7  1  0  0  0  0
  6  8  1  0  0  0  0
  6  9  1  0  0  0  0
  8  9  1  0  0  0  0
  9 10  1  0  0  0  0
  9 14  1  0  0  0  0
 10 11  1  0  0  0  0
 10 12  1  0  0  0  0
 10 13  1  0  0  0  0
M  END
$$$$
