48
0 1 BrC16H22N5O3S
N                    -1.576219347276    -9.284714003596     3.795074277370
S                    -1.955911362079    -8.378682908966     2.591201885836
O                    -1.113777590120    -7.254692426226     2.103844819861
C                    -3.622212117294    -7.698814306478     2.757547371441
C                    -4.585513013374    -8.415301622687     3.470208471829
H                    -4.329273988324    -9.370473086787     3.919507472653
C                    -5.872412070988    -7.906605374565     3.625497688635
H                    -6.610667726771    -8.465686384118     4.176003169818
C                    -6.203272290137    -6.652036478013     3.073925724868
N                    -7.457048177596    -6.045665435901     3.196974301520
C                    -8.563708043185    -6.385079804660     3.953300972748
N                    -9.518986295245    -5.434411045946     3.979070119581
C                   -10.589346916687    -5.725402000980     4.733065288936
H                   -11.377943470401    -4.976751606120     4.772534045279
C                   -10.713528292411    -6.908182055660     5.444381464276
Br                  -12.256567149056    -7.262140960598     6.520251810042
C                    -9.662177584372    -7.853958671606     5.338287386780
N                    -9.676995726336    -9.053330321004     5.964722907807
C                    -8.589800422041   -10.016682515523     5.842804981767
C                    -7.376937653663    -9.616378550938     6.691872615634
O                    -6.261300466031   -10.347586127203     6.195684412821
C                    -5.051442614568   -10.016762103775     6.864393583413
H                    -4.255990887596   -10.607822101810     6.405350832025
H                    -5.109637867583   -10.256974928208     7.936134579484
H                    -4.816006826278    -8.948786923239     6.751326019218
H                    -7.556828975172    -9.844576158089     7.752382979015
H                    -7.200514755387    -8.537989512153     6.589040360006
C                    -9.113155429244   -11.411993743154     6.196016789027
O                    -9.755103626741   -11.278814137597     7.480520409578
H                   -10.131247206714   -12.137622071793     7.726942017305
C                   -10.073200747748   -11.969342422315     5.147132613009
H                   -10.438472360761   -12.959676494956     5.443346525946
H                   -10.935413265239   -11.309404909043     5.013932485960
H                    -9.566174852782   -12.079332307728     4.182997490224
H                    -8.238047979693   -12.067949780011     6.285355639629
H                    -8.259352648902   -10.027573945621     4.801402313154
H                   -10.398919507576    -9.246478605870     6.649312215523
N                    -8.593810828575    -7.567423986656     4.571560965167
H                    -7.551398066502    -5.122953638403     2.789228729493
C                    -5.217893337645    -5.940678312462     2.354899903245
H                    -5.459922044259    -4.968497743410     1.930310869315
C                    -3.936672266833    -6.456997495890     2.196284728293
H                    -3.172351130272    -5.901031419195     1.662529880746
C                    -2.143607004967    -9.583585582071     1.266042776130
H                    -2.471890480356    -9.045906128783     0.375966559613
H                    -1.158658125378   -10.027910380616     1.114065917615
H                    -2.868209047323   -10.340284217252     1.565545250259
H                    -1.417936675533    -8.706633441930     4.624408258039
