
  -OEChem-12122420533D

 48 49  0     1  0  0  0  0  0999 V2000
   -1.3626   -8.8434    3.9941 N   0  0  0  0  0  0  0  0  0  0  0  0
   -1.9196   -8.2586    2.6670 S   0  0  2  0  0  0  0  0  0  0  0  0
   -1.1749   -7.3022    1.8065 O   0  0  0  0  0  0  0  0  0  0  0  0
   -3.5661   -7.5438    2.8760 C   0  0  0  0  0  0  0  0  0  0  0  0
   -4.4057   -8.0357    3.8794 C   0  0  0  0  0  0  0  0  0  0  0  0
   -4.0475   -8.8193    4.5418 H   0  0  0  0  0  0  0  0  0  0  0  0
   -5.6826   -7.5085    4.0555 C   0  0  0  0  0  0  0  0  0  0  0  0
   -6.3186   -7.8882    4.8433 H   0  0  0  0  0  0  0  0  0  0  0  0
   -6.1274   -6.4677    3.2140 C   0  0  0  0  0  0  0  0  0  0  0  0
   -7.3780   -5.8542    3.3414 N   0  0  0  0  0  0  0  0  0  0  0  0
   -8.4984   -6.2515    4.0464 C   0  0  0  0  0  0  0  0  0  0  0  0
   -9.4542   -5.3056    4.1427 N   0  0  0  0  0  0  0  0  0  0  0  0
  -10.5388   -5.6704    4.8422 C   0  0  0  0  0  0  0  0  0  0  0  0
  -11.3322   -4.9318    4.9368 H   0  0  0  0  0  0  0  0  0  0  0  0
  -10.6703   -6.9159    5.4340 C   0  0  0  0  0  0  0  0  0  0  0  0
  -12.2360   -7.3688    6.4423 Br  0  0  0  0  0  0  0  0  0  0  0  0
   -9.6155   -7.8500    5.2554 C   0  0  0  0  0  0  0  0  0  0  0  0
   -9.6598   -9.1022    5.7671 N   0  0  0  0  0  0  0  0  0  0  0  0
   -8.6390  -10.1196    5.5584 C   0  0  1  0  0  0  0  0  0  0  0  0
   -7.7012  -10.2361    6.7626 C   0  0  0  0  0  0  0  0  0  0  0  0
   -6.9287   -9.0484    6.8367 O   0  0  0  0  0  0  0  0  0  0  0  0
   -6.0846   -9.0098    7.9774 C   0  0  0  0  0  0  0  0  0  0  0  0
   -5.5345   -8.0673    7.9358 H   0  0  0  0  0  0  0  0  0  0  0  0
   -5.3686   -9.8452    7.9763 H   0  0  0  0  0  0  0  0  0  0  0  0
   -6.6700   -9.0464    8.9078 H   0  0  0  0  0  0  0  0  0  0  0  0
   -7.0427  -11.1105    6.6329 H   0  0  0  0  0  0  0  0  0  0  0  0
   -8.2822  -10.3830    7.6839 H   0  0  0  0  0  0  0  0  0  0  0  0
   -9.3174  -11.4577    5.2386 C   0  0  1  0  0  0  0  0  0  0  0  0
  -10.1628  -11.7502    6.3673 O   0  0  0  0  0  0  0  0  0  0  0  0
  -10.7176  -12.5149    6.1485 H   0  0  0  0  0  0  0  0  0  0  0  0
  -10.1093  -11.4177    3.9341 C   0  0  0  0  0  0  0  0  0  0  0  0
  -10.5790  -12.3887    3.7372 H   0  0  0  0  0  0  0  0  0  0  0  0
  -10.8920  -10.6555    3.9771 H   0  0  0  0  0  0  0  0  0  0  0  0
   -9.4501  -11.1912    3.0899 H   0  0  0  0  0  0  0  0  0  0  0  0
   -8.5319  -12.2235    5.1629 H   0  0  0  0  0  0  0  0  0  0  0  0
   -8.0415   -9.8136    4.6976 H   0  0  0  0  0  0  0  0  0  0  0  0
  -10.4655   -9.3690    6.3207 H   0  0  0  0  0  0  0  0  0  0  0  0
   -8.5408   -7.4913    4.5352 N   0  0  0  0  0  0  0  0  0  0  0  0
   -7.4897   -4.9425    2.9148 H   0  0  0  0  0  0  0  0  0  0  0  0
   -5.2626   -5.9684    2.2180 C   0  0  0  0  0  0  0  0  0  0  0  0
   -5.5978   -5.1579    1.5743 H   0  0  0  0  0  0  0  0  0  0  0  0
   -3.9879   -6.4996    2.0481 C   0  0  0  0  0  0  0  0  0  0  0  0
   -3.3150   -6.1095    1.2911 H   0  0  0  0  0  0  0  0  0  0  0  0
   -2.2512   -9.7526    1.7172 C   0  0  0  0  0  0  0  0  0  0  0  0
   -2.7034   -9.4489    0.7726 H   0  0  0  0  0  0  0  0  0  0  0  0
   -1.2848  -10.2318    1.5521 H   0  0  0  0  0  0  0  0  0  0  0  0
   -2.9144  -10.4031    2.2866 H   0  0  0  0  0  0  0  0  0  0  0  0
   -1.1175   -8.0815    4.6317 H   0  0  0  0  0  0  0  0  0  0  0  0
  1  2  2  0  0  0  0
  1 48  1  0  0  0  0
  2  3  2  0  0  0  0
  2  4  1  0  0  0  0
  2 44  1  0  0  0  0
  4  5  2  0  0  0  0
  4 42  1  0  0  0  0
  5  6  1  0  0  0  0
  5  7  1  0  0  0  0
  7  8  1  0  0  0  0
  7  9  2  0  0  0  0
  9 10  1  0  0  0  0
  9 40  1  0  0  0  0
 10 11  1  0  0  0  0
 10 39  1  0  0  0  0
 11 12  1  0  0  0  0
 11 38  2  0  0  0  0
 12 13  2  0  0  0  0
 13 14  1  0  0  0  0
 13 15  1  0  0  0  0
 15 16  1  0  0  0  0
 15 17  2  0  0  0  0
 17 18  1  0  0  0  0
 17 38  1  0  0  0  0
 18 19  1  0  0  0  0
 18 37  1  0  0  0  0
 19 20  1  0  0  0  0
 19 28  1  0  0  0  0
 19 36  1  0  0  0  0
 20 21  1  0  0  0  0
 20 26  1  0  0  0  0
 20 27  1  0  0  0  0
 21 22  1  0  0  0  0
 22 23  1  0  0  0  0
 22 24  1  0  0  0  0
 22 25  1  0  0  0  0
 28 29  1  0  0  0  0
 28 31  1  0  0  0  0
 28 35  1  0  0  0  0
 29 30  1  0  0  0  0
 31 32  1  0  0  0  0
 31 33  1  0  0  0  0
 31 34  1  0  0  0  0
 40 41  1  0  0  0  0
 40 42  2  0  0  0  0
 42 43  1  0  0  0  0
 44 45  1  0  0  0  0
 44 46  1  0  0  0  0
 44 47  1  0  0  0  0
M  END
$$$$
