47
0 1 BrC16H22N5O2S
N                    -7.483006621700     0.708270744617    -0.245668519764
S                    -6.195351523313    -0.113843729576     0.029384496119
O                    -5.433299461589    -0.838395055588    -1.021840172492
C                    -6.421402142101    -1.308052831942     1.368736858297
C                    -7.367139551308    -1.056814864914     2.365220642180
H                    -7.969969138439    -0.153929570048     2.314096800107
C                    -7.554526874386    -1.961939346688     3.408935439488
H                    -8.285822606282    -1.775657046170     4.182321847345
C                    -6.786288641108    -3.142473192279     3.453076349050
N                    -6.893198757489    -4.113322483763     4.451666395818
C                    -7.695096990034    -4.205427052597     5.574114035942
N                    -8.574075820683    -3.235699854929     5.852824851707
C                    -9.303164185096    -3.430694343832     6.968915284912
H                   -10.026705825115    -2.657169841891     7.217502211700
C                    -9.163116621360    -4.540401587516     7.774214211300
Br                  -10.225071410980    -4.755126173547     9.353251400765
C                    -8.198630437120    -5.521844848005     7.396378349066
N                    -7.977735152679    -6.629446749573     8.136518838821
C                    -7.074940691081    -7.710216646589     7.744009067163
C                    -7.784777064685    -8.683919272177     6.793271351366
H                    -7.087051461891    -9.412549453795     6.371080315717
H                    -8.582269235480    -9.221499340693     7.313510589611
H                    -8.221417977293    -8.120423517076     5.964739661558
C                    -6.529133414510    -8.360064745452     9.038093319402
O                    -7.710851511073    -8.730695457789     9.787597023097
H                    -7.432859857720    -9.034627102837    10.665908016230
C                    -5.701574400042    -7.346010351969     9.839515990972
H                    -5.368953841151    -7.788928470486    10.785928402753
H                    -6.286379518155    -6.450823569498    10.062381259291
H                    -4.807294685519    -7.045934265620     9.283841062286
C                    -5.693785837561    -9.608384291984     8.732800815781
H                    -5.243177223683    -9.994088696543     9.654264813416
H                    -6.313106999624   -10.398180844983     8.303376160500
H                    -4.879756090458    -9.381051011138     8.036066525947
H                    -6.235553666352    -7.250672452168     7.217512673534
H                    -8.602563086258    -6.826851593045     8.910428761692
N                    -7.475968152040    -5.330819346935     6.281494683323
H                    -6.283014549065    -4.916020250156     4.358870970260
C                    -5.842984187629    -3.387956568812     2.431464834031
H                    -5.255736218175    -4.303996277783     2.451625035812
C                    -5.659391562578    -2.480143602219     1.395491259010
H                    -4.947005142206    -2.675054052489     0.600118739283
C                    -5.120146067545     1.123535908933     0.775632310023
H                    -4.191602001629     0.626532937260     1.058389664542
H                    -4.942115772325     1.877596294088     0.007272207234
H                    -5.618345191385     1.561423208501     1.640132963315
H                    -8.188224802285     0.113952195029    -0.688658246541
