
  -OEChem-12102412493D

 48 49  0     1  0  0  0  0  0999 V2000
    0.4337   -7.1716   -1.0128 N   0  0  0  0  0  0  0  0  0  0  0  0
   -0.6595   -8.1271   -0.4731 S   0  0  2  0  0  0  0  0  0  0  0  0
   -1.3079   -8.9782   -1.4909 O   0  0  0  0  0  0  0  0  0  0  0  0
   -1.9708   -7.2065    0.3805 C   0  0  0  0  0  0  0  0  0  0  0  0
   -1.8989   -5.8119    0.3750 C   0  0  0  0  0  0  0  0  0  0  0  0
   -1.0684   -5.3362   -0.1396 H   0  0  0  0  0  0  0  0  0  0  0  0
   -2.8694   -5.0517    1.0184 C   0  0  0  0  0  0  0  0  0  0  0  0
   -2.7926   -3.9672    1.0243 H   0  0  0  0  0  0  0  0  0  0  0  0
   -3.9394   -5.6822    1.6819 C   0  0  0  0  0  0  0  0  0  0  0  0
   -4.8864   -4.8727    2.3211 N   0  0  0  0  0  0  0  0  0  0  0  0
   -5.6653   -5.1401    3.4309 C   0  0  0  0  0  0  0  0  0  0  0  0
   -6.3738   -4.0841    3.8709 N   0  0  0  0  0  0  0  0  0  0  0  0
   -7.1168   -4.3130    4.9637 C   0  0  0  0  0  0  0  0  0  0  0  0
   -7.6993   -3.4760    5.3429 H   0  0  0  0  0  0  0  0  0  0  0  0
   -7.1599   -5.5406    5.6026 C   0  0  0  0  0  0  0  0  0  0  0  0
   -8.2402   -5.8057    7.1610 Br  0  0  0  0  0  0  0  0  0  0  0  0
   -6.3741   -6.5948    5.0683 C   0  0  0  0  0  0  0  0  0  0  0  0
   -6.3453   -7.8313    5.6155 N   0  0  0  0  0  0  0  0  0  0  0  0
   -5.6043   -8.9705    5.0678 C   0  0  2  0  0  0  0  0  0  0  0  0
   -6.3692  -10.2597    5.3764 C   0  0  0  0  0  0  0  0  0  0  0  0
   -5.8116  -11.1294    5.0174 H   0  0  0  0  0  0  0  0  0  0  0  0
   -6.5269  -10.3860    6.4526 H   0  0  0  0  0  0  0  0  0  0  0  0
   -7.3470  -10.2511    4.8866 H   0  0  0  0  0  0  0  0  0  0  0  0
   -4.1335   -9.0188    5.5446 C   0  0  1  0  0  0  0  0  0  0  0  0
   -3.4320   -7.8174    5.2254 O   0  0  0  0  0  0  0  0  0  0  0  0
   -3.8605   -7.3914    4.4604 H   0  0  0  0  0  0  0  0  0  0  0  0
   -3.9730   -9.2399    7.0450 C   0  0  0  0  0  0  0  0  0  0  0  0
   -2.9123   -9.1807    7.3029 H   0  0  0  0  0  0  0  0  0  0  0  0
   -4.4972   -8.4607    7.6080 H   0  0  0  0  0  0  0  0  0  0  0  0
   -4.3448  -10.2213    7.3546 H   0  0  0  0  0  0  0  0  0  0  0  0
   -3.6725   -9.8626    5.0056 H   0  0  0  0  0  0  0  0  0  0  0  0
   -5.5841   -8.8345    3.9826 H   0  0  0  0  0  0  0  0  0  0  0  0
   -6.8751   -7.9644    6.4674 H   0  0  0  0  0  0  0  0  0  0  0  0
   -5.6328   -6.3656    3.9658 N   0  0  0  0  0  0  0  0  0  0  0  0
   -4.8694   -3.8848    2.0968 H   0  0  0  0  0  0  0  0  0  0  0  0
   -4.0320   -7.0836    1.6521 C   0  0  0  0  0  0  0  0  0  0  0  0
   -4.8602   -7.5920    2.1237 H   0  0  0  0  0  0  0  0  0  0  0  0
   -3.0550   -7.8393    1.0073 C   0  0  0  0  0  0  0  0  0  0  0  0
   -3.1500   -9.2139    1.0371 O   0  0  0  0  0  0  0  0  0  0  0  0
   -3.9795   -9.7749   -0.0051 C   0  0  0  0  0  0  0  0  0  0  0  0
   -3.9878  -10.8524    0.1676 H   0  0  0  0  0  0  0  0  0  0  0  0
   -3.5479   -9.5560   -0.9846 H   0  0  0  0  0  0  0  0  0  0  0  0
   -4.9998   -9.3805    0.0687 H   0  0  0  0  0  0  0  0  0  0  0  0
   -0.0266   -9.1805    0.8666 C   0  0  0  0  0  0  0  0  0  0  0  0
   -0.8482   -9.7883    1.2447 H   0  0  0  0  0  0  0  0  0  0  0  0
    0.7516   -9.7995    0.4150 H   0  0  0  0  0  0  0  0  0  0  0  0
    0.3868   -8.5459    1.6534 H   0  0  0  0  0  0  0  0  0  0  0  0
    1.0880   -6.9001   -0.2774 H   0  0  0  0  0  0  0  0  0  0  0  0
  1  2  2  0  0  0  0
  1 48  1  0  0  0  0
  2  3  2  0  0  0  0
  2  4  1  0  0  0  0
  2 44  1  0  0  0  0
  4  5  2  0  0  0  0
  4 38  1  0  0  0  0
  5  6  1  0  0  0  0
  5  7  1  0  0  0  0
  7  8  1  0  0  0  0
  7  9  2  0  0  0  0
  9 10  1  0  0  0  0
  9 36  1  0  0  0  0
 10 11  1  0  0  0  0
 10 35  1  0  0  0  0
 11 12  1  0  0  0  0
 11 34  2  0  0  0  0
 12 13  2  0  0  0  0
 13 14  1  0  0  0  0
 13 15  1  0  0  0  0
 15 16  1  0  0  0  0
 15 17  2  0  0  0  0
 17 18  1  0  0  0  0
 17 34  1  0  0  0  0
 18 19  1  0  0  0  0
 18 33  1  0  0  0  0
 19 20  1  0  0  0  0
 19 24  1  0  0  0  0
 19 32  1  0  0  0  0
 20 21  1  0  0  0  0
 20 22  1  0  0  0  0
 20 23  1  0  0  0  0
 24 25  1  0  0  0  0
 24 27  1  0  0  0  0
 24 31  1  0  0  0  0
 25 26  1  0  0  0  0
 27 28  1  0  0  0  0
 27 29  1  0  0  0  0
 27 30  1  0  0  0  0
 36 37  1  0  0  0  0
 36 38  2  0  0  0  0
 38 39  1  0  0  0  0
 39 40  1  0  0  0  0
 40 41  1  0  0  0  0
 40 42  1  0  0  0  0
 40 43  1  0  0  0  0
 44 45  1  0  0  0  0
 44 46  1  0  0  0  0
 44 47  1  0  0  0  0
M  END
$$$$
