20
0 1 C4Cl2H9NO3S
O                    -3.499787673411     2.552926953281     1.248462916513
S                    -3.117790022918     1.536364312737    -0.001014369212
O                    -4.124228027017     0.470945148088     0.006487331595
O                    -2.882908325501     2.344609591999    -1.188033091015
C                    -1.540303624312     0.904509043386     0.612450229908
C                    -0.911428527551    -0.044668679161    -0.407748646547
C                     0.396286747541    -0.631812146700     0.140113033541
C                     1.050930578376    -1.632454559654    -0.813528362279
N                     1.268851019043    -1.021517707775    -2.150560414682
Cl                    2.549489587457     0.229944278245    -2.005774682869
Cl                    1.871495563487    -2.307353362617    -3.241316002083
H                     1.981098964324    -2.031250729028    -0.392512766801
H                     0.370129872566    -2.467540723061    -1.006106294657
H                     1.102242765202     0.169614673620     0.379224407360
H                     0.205036981169    -1.172708346540     1.075298442788
H                    -1.611814637564    -0.855098682413    -0.636793810377
H                    -0.718856908257     0.490738873484    -1.340221355826
H                    -0.917849426239     1.783735719473     0.797216638805
H                    -1.765130250920     0.410849683211     1.561131303768
H                    -4.384207440638     2.293755233420     1.572894151146
