18
-1 1 C4H9O4S
O                    -0.899490543683     1.272394913531    -0.775298796086
C                     0.006780818568     0.482873363345     0.025032288734
C                    -0.177943700661    -0.985561587423    -0.326934925478
C                     0.836779620442    -1.908435995786     0.368068441575
C                     0.723268478743    -1.933977633460     1.891244837997
S                     1.917901086922    -3.105948026505     2.646257874425
O                     1.652161230106    -3.000348465112     4.110662114129
O                     1.566972557615    -4.430891041405     2.050954896473
O                     3.255325122052    -2.586277341546     2.226794784340
H                     0.941393843285    -0.962213918464     2.343857922230
H                    -0.272702389546    -2.256137591878     2.213849516943
H                     1.857564259027    -1.613576204997     0.098519731241
H                     0.702255613722    -2.931175658408     0.001483368390
H                    -0.080587884111    -1.085202624006    -1.415986440549
H                    -1.203274839336    -1.283087547627    -0.071209906127
H                    -0.192980747362     0.648371800280     1.091955380307
H                     1.047452921000     0.781947526731    -0.172908981676
H                    -0.800684030144     2.195794890117    -0.497998682096
