
  -OEChem-12122420533D

 47 48  0     1  0  0  0  0  0999 V2000
   -2.3703   -7.1772    0.1998 N   0  0  0  0  0  0  0  0  0  0  0  0
   -2.5438   -7.5573    1.6945 S   0  0  2  0  0  0  0  0  0  0  0  0
   -2.6895   -8.9518    2.1879 O   0  0  0  0  0  0  0  0  0  0  0  0
   -3.8861   -6.6302    2.4769 C   0  0  0  0  0  0  0  0  0  0  0  0
   -4.2223   -5.3624    1.9905 C   0  0  0  0  0  0  0  0  0  0  0  0
   -3.6851   -4.9498    1.1410 H   0  0  0  0  0  0  0  0  0  0  0  0
   -5.2543   -4.6507    2.5898 C   0  0  0  0  0  0  0  0  0  0  0  0
   -5.5154   -3.6636    2.2141 H   0  0  0  0  0  0  0  0  0  0  0  0
   -5.9734   -5.1953    3.6765 C   0  0  0  0  0  0  0  0  0  0  0  0
   -7.0044   -4.4172    4.2046 N   0  0  0  0  0  0  0  0  0  0  0  0
   -7.7793   -4.5577    5.3411 C   0  0  0  0  0  0  0  0  0  0  0  0
   -8.6630   -3.5534    5.5082 N   0  0  0  0  0  0  0  0  0  0  0  0
   -9.4266   -3.6449    6.6057 C   0  0  0  0  0  0  0  0  0  0  0  0
  -10.1517   -2.8498    6.7664 H   0  0  0  0  0  0  0  0  0  0  0  0
   -9.3172   -4.6859    7.5118 C   0  0  0  0  0  0  0  0  0  0  0  0
  -10.4304   -4.7554    9.0697 Br  0  0  0  0  0  0  0  0  0  0  0  0
   -8.3492   -5.6931    7.2540 C   0  0  0  0  0  0  0  0  0  0  0  0
   -8.1567   -6.7358    8.0955 N   0  0  0  0  0  0  0  0  0  0  0  0
   -7.1931   -7.8208    7.9064 C   0  0  2  0  0  0  0  0  0  0  0  0
   -7.8727   -9.1581    8.2112 C   0  0  0  0  0  0  0  0  0  0  0  0
   -7.1425   -9.9685    8.1683 H   0  0  0  0  0  0  0  0  0  0  0  0
   -8.3256   -9.1616    9.2086 H   0  0  0  0  0  0  0  0  0  0  0  0
   -8.6646   -9.3511    7.4818 H   0  0  0  0  0  0  0  0  0  0  0  0
   -5.8813   -7.5896    8.7212 C   0  0  0  0  0  0  0  0  0  0  0  0
   -4.9815   -8.6746    8.4179 O   0  0  0  0  0  0  0  0  0  0  0  0
   -4.6104   -8.5198    7.5340 H   0  0  0  0  0  0  0  0  0  0  0  0
   -6.1171   -7.6636   10.2298 C   0  0  0  0  0  0  0  0  0  0  0  0
   -5.1831   -7.4566   10.7589 H   0  0  0  0  0  0  0  0  0  0  0  0
   -6.4560   -8.6591   10.5266 H   0  0  0  0  0  0  0  0  0  0  0  0
   -6.8600   -6.9250   10.5467 H   0  0  0  0  0  0  0  0  0  0  0  0
   -5.2252   -6.2564    8.3431 C   0  0  0  0  0  0  0  0  0  0  0  0
   -4.2668   -6.1655    8.8629 H   0  0  0  0  0  0  0  0  0  0  0  0
   -5.0493   -6.1926    7.2639 H   0  0  0  0  0  0  0  0  0  0  0  0
   -5.8513   -5.4054    8.6227 H   0  0  0  0  0  0  0  0  0  0  0  0
   -6.9139   -7.8030    6.8507 H   0  0  0  0  0  0  0  0  0  0  0  0
   -8.7697   -6.7847    8.8997 H   0  0  0  0  0  0  0  0  0  0  0  0
   -7.5920   -5.6085    6.1439 N   0  0  0  0  0  0  0  0  0  0  0  0
   -7.2151   -3.5551    3.7158 H   0  0  0  0  0  0  0  0  0  0  0  0
   -5.6363   -6.4819    4.1416 C   0  0  0  0  0  0  0  0  0  0  0  0
   -6.2007   -6.9126    4.9544 H   0  0  0  0  0  0  0  0  0  0  0  0
   -4.5963   -7.1889    3.5406 C   0  0  0  0  0  0  0  0  0  0  0  0
   -4.3435   -8.1905    3.8754 H   0  0  0  0  0  0  0  0  0  0  0  0
   -1.0720   -6.8295    2.4342 C   0  0  0  0  0  0  0  0  0  0  0  0
   -1.1251   -6.9979    3.5103 H   0  0  0  0  0  0  0  0  0  0  0  0
   -0.2200   -7.3535    1.9980 H   0  0  0  0  0  0  0  0  0  0  0  0
   -1.0348   -5.7667    2.1971 H   0  0  0  0  0  0  0  0  0  0  0  0
   -3.1459   -7.5553   -0.3499 H   0  0  0  0  0  0  0  0  0  0  0  0
  1  2  2  0  0  0  0
  1 47  1  0  0  0  0
  2  3  2  0  0  0  0
  2  4  1  0  0  0  0
  2 43  1  0  0  0  0
  4  5  2  0  0  0  0
  4 41  1  0  0  0  0
  5  6  1  0  0  0  0
  5  7  1  0  0  0  0
  7  8  1  0  0  0  0
  7  9  2  0  0  0  0
  9 10  1  0  0  0  0
  9 39  1  0  0  0  0
 10 11  1  0  0  0  0
 10 38  1  0  0  0  0
 11 12  1  0  0  0  0
 11 37  2  0  0  0  0
 12 13  2  0  0  0  0
 13 14  1  0  0  0  0
 13 15  1  0  0  0  0
 15 16  1  0  0  0  0
 15 17  2  0  0  0  0
 17 18  1  0  0  0  0
 17 37  1  0  0  0  0
 18 19  1  0  0  0  0
 18 36  1  0  0  0  0
 19 20  1  0  0  0  0
 19 24  1  0  0  0  0
 19 35  1  0  0  0  0
 20 21  1  0  0  0  0
 20 22  1  0  0  0  0
 20 23  1  0  0  0  0
 24 25  1  0  0  0  0
 24 27  1  0  0  0  0
 24 31  1  0  0  0  0
 25 26  1  0  0  0  0
 27 28  1  0  0  0  0
 27 29  1  0  0  0  0
 27 30  1  0  0  0  0
 31 32  1  0  0  0  0
 31 33  1  0  0  0  0
 31 34  1  0  0  0  0
 39 40  1  0  0  0  0
 39 41  2  0  0  0  0
 41 42  1  0  0  0  0
 43 44  1  0  0  0  0
 43 45  1  0  0  0  0
 43 46  1  0  0  0  0
M  END
$$$$
