18
-1 1 C4H9O4S
O                    -0.985925005164    -0.162528948435    -2.491083885957
C                    -0.028005846608    -1.057192358769    -1.887674865656
C                    -0.173315125185    -1.004826008605    -0.375255588864
C                     0.822230321668    -1.938481153777     0.327691188505
C                     0.698276275183    -1.905694143445     1.847931365797
S                     1.900622159801    -3.031279841470     2.657581049626
O                     1.632156442380    -2.864961439155     4.115760170335
O                     1.559768302026    -4.383755205794     2.119964938850
O                     3.235744543945    -2.524104856117     2.216422593504
H                     0.895797696394    -0.905485708722     2.247173695062
H                    -0.294912242834    -2.226743925118     2.178581427508
H                     1.849169074251    -1.665139396450     0.059129557715
H                     0.672442632232    -2.970896562400    -0.008652343734
H                    -1.203170951266    -1.277764829237    -0.111539930131
H                    -0.024045182732     0.030713106634    -0.043560328077
H                     0.994215090054    -0.766134192937    -2.173208500785
H                    -0.195049348704    -2.085727988253    -2.241781755001
H                    -0.870069984137    -0.216936134013    -3.451852981299
