48
0 1 BrC16H22N5O3S
N                     0.808811710549    -8.355339722138     0.092506542427
S                    -0.645656454426    -8.471042943390    -0.428535230101
O                    -1.025368932512    -8.247139408217    -1.846238824240
C                    -1.826518924357    -7.488243401711     0.553289207317
C                    -2.923850692206    -8.037467035770     1.208090780587
H                    -3.116864634854    -9.103252740305     1.153877628417
C                    -3.817024294064    -7.248142635844     1.936503179324
H                    -4.677326566493    -7.693938848666     2.412226707664
C                    -3.604731488987    -5.865148706305     2.014206740714
N                    -4.453079420681    -4.979861538253     2.690883658481
C                    -5.361652592671    -5.189089089629     3.706745335017
N                    -5.963134868165    -4.059982569242     4.130261832576
C                    -6.838716185325    -4.219425006927     5.131532394754
H                    -7.336489056921    -3.322499072970     5.494370692200
C                    -7.117314270469    -5.451466342777     5.698390092052
Br                   -8.381557669455    -5.616148317486     7.127130814650
C                    -6.430767298121    -6.585092549845     5.191627335746
N                    -6.636265552481    -7.830580310369     5.678125446565
C                    -5.990441004914    -9.044649978504     5.176106504656
C                    -6.948357798048   -10.226603828805     5.343737562793
H                    -6.470676906707   -11.155340986193     5.018656329209
H                    -7.248536544777   -10.355478598921     6.388859347052
H                    -7.851120651891   -10.075087433840     4.745412660169
C                    -4.607822309643    -9.298487142280     5.820952058508
O                    -3.717714622958    -8.201855094873     5.618940134739
H                    -4.007739385074    -7.688101600691     4.842536009171
C                    -4.661037719350    -9.557904527369     7.323084812963
H                    -3.640794487261    -9.647044227419     7.705425671920
H                    -5.139546434353    -8.720868250688     7.841935537833
H                    -5.195880364739   -10.482875022538     7.558907138747
H                    -4.201655844746   -10.192523541121     5.319049831925
H                    -5.823299049397    -8.885679461055     4.106497881073
H                    -7.261480928447    -7.910594815097     6.469879754156
N                    -5.548997645074    -6.426274112635     4.182534047406
H                    -4.330107564141    -3.993220810329     2.497788513590
C                    -2.499363826520    -5.295686224148     1.349343280832
H                    -2.334184621029    -4.226190696319     1.423646598180
C                    -1.619551700519    -6.094017056154     0.620769991057
O                    -0.528963629456    -5.616548925802    -0.041176696957
C                    -0.321204788262    -4.206195783039    -0.098082863703
H                     0.562619019591    -4.064277212731    -0.720026527479
H                    -0.136083444334    -3.792527987760     0.900140457966
H                    -1.177589350129    -3.702283228108    -0.560177385357
C                    -1.041083416002   -10.170696870343     0.018765639911
H                    -2.026870009575   -10.421011116216    -0.372750887290
H                    -0.273934859145   -10.761964808563    -0.482442337923
H                    -0.972911960750   -10.302401521429     1.098118236312
H                     1.153111707905    -7.405838518854    -0.059262894496
