
  -OEChem-12102412493D

 47 48  0     1  0  0  0  0  0999 V2000
   -7.4830    0.7083   -0.2457 N   0  0  0  0  0  0  0  0  0  0  0  0
   -6.1954   -0.1138    0.0294 S   0  0  2  0  0  0  0  0  0  0  0  0
   -5.4333   -0.8384   -1.0218 O   0  0  0  0  0  0  0  0  0  0  0  0
   -6.4214   -1.3081    1.3687 C   0  0  0  0  0  0  0  0  0  0  0  0
   -7.3671   -1.0568    2.3652 C   0  0  0  0  0  0  0  0  0  0  0  0
   -7.9700   -0.1539    2.3141 H   0  0  0  0  0  0  0  0  0  0  0  0
   -7.5545   -1.9619    3.4089 C   0  0  0  0  0  0  0  0  0  0  0  0
   -8.2858   -1.7757    4.1823 H   0  0  0  0  0  0  0  0  0  0  0  0
   -6.7863   -3.1425    3.4531 C   0  0  0  0  0  0  0  0  0  0  0  0
   -6.8932   -4.1133    4.4517 N   0  0  0  0  0  0  0  0  0  0  0  0
   -7.6951   -4.2054    5.5741 C   0  0  0  0  0  0  0  0  0  0  0  0
   -8.5741   -3.2357    5.8528 N   0  0  0  0  0  0  0  0  0  0  0  0
   -9.3032   -3.4307    6.9689 C   0  0  0  0  0  0  0  0  0  0  0  0
  -10.0267   -2.6572    7.2175 H   0  0  0  0  0  0  0  0  0  0  0  0
   -9.1631   -4.5404    7.7742 C   0  0  0  0  0  0  0  0  0  0  0  0
  -10.2251   -4.7551    9.3533 Br  0  0  0  0  0  0  0  0  0  0  0  0
   -8.1986   -5.5218    7.3964 C   0  0  0  0  0  0  0  0  0  0  0  0
   -7.9777   -6.6294    8.1365 N   0  0  0  0  0  0  0  0  0  0  0  0
   -7.0749   -7.7102    7.7440 C   0  0  2  0  0  0  0  0  0  0  0  0
   -7.7848   -8.6839    6.7933 C   0  0  0  0  0  0  0  0  0  0  0  0
   -7.0871   -9.4125    6.3711 H   0  0  0  0  0  0  0  0  0  0  0  0
   -8.5823   -9.2215    7.3135 H   0  0  0  0  0  0  0  0  0  0  0  0
   -8.2214   -8.1204    5.9647 H   0  0  0  0  0  0  0  0  0  0  0  0
   -6.5291   -8.3601    9.0381 C   0  0  0  0  0  0  0  0  0  0  0  0
   -7.7109   -8.7307    9.7876 O   0  0  0  0  0  0  0  0  0  0  0  0
   -7.4329   -9.0346   10.6659 H   0  0  0  0  0  0  0  0  0  0  0  0
   -5.7016   -7.3460    9.8395 C   0  0  0  0  0  0  0  0  0  0  0  0
   -5.3690   -7.7889   10.7859 H   0  0  0  0  0  0  0  0  0  0  0  0
   -6.2864   -6.4508   10.0624 H   0  0  0  0  0  0  0  0  0  0  0  0
   -4.8073   -7.0459    9.2838 H   0  0  0  0  0  0  0  0  0  0  0  0
   -5.6938   -9.6084    8.7328 C   0  0  0  0  0  0  0  0  0  0  0  0
   -5.2432   -9.9941    9.6543 H   0  0  0  0  0  0  0  0  0  0  0  0
   -6.3131  -10.3982    8.3034 H   0  0  0  0  0  0  0  0  0  0  0  0
   -4.8798   -9.3811    8.0361 H   0  0  0  0  0  0  0  0  0  0  0  0
   -6.2356   -7.2507    7.2175 H   0  0  0  0  0  0  0  0  0  0  0  0
   -8.6026   -6.8269    8.9104 H   0  0  0  0  0  0  0  0  0  0  0  0
   -7.4760   -5.3308    6.2815 N   0  0  0  0  0  0  0  0  0  0  0  0
   -6.2830   -4.9160    4.3589 H   0  0  0  0  0  0  0  0  0  0  0  0
   -5.8430   -3.3880    2.4315 C   0  0  0  0  0  0  0  0  0  0  0  0
   -5.2557   -4.3040    2.4516 H   0  0  0  0  0  0  0  0  0  0  0  0
   -5.6594   -2.4801    1.3955 C   0  0  0  0  0  0  0  0  0  0  0  0
   -4.9470   -2.6751    0.6001 H   0  0  0  0  0  0  0  0  0  0  0  0
   -5.1201    1.1235    0.7756 C   0  0  0  0  0  0  0  0  0  0  0  0
   -4.1916    0.6265    1.0584 H   0  0  0  0  0  0  0  0  0  0  0  0
   -4.9421    1.8776    0.0073 H   0  0  0  0  0  0  0  0  0  0  0  0
   -5.6183    1.5614    1.6401 H   0  0  0  0  0  0  0  0  0  0  0  0
   -8.1882    0.1140   -0.6887 H   0  0  0  0  0  0  0  0  0  0  0  0
  1  2  2  0  0  0  0
  1 47  1  0  0  0  0
  2  3  2  0  0  0  0
  2  4  1  0  0  0  0
  2 43  1  0  0  0  0
  4  5  2  0  0  0  0
  4 41  1  0  0  0  0
  5  6  1  0  0  0  0
  5  7  1  0  0  0  0
  7  8  1  0  0  0  0
  7  9  2  0  0  0  0
  9 10  1  0  0  0  0
  9 39  1  0  0  0  0
 10 11  1  0  0  0  0
 10 38  1  0  0  0  0
 11 12  1  0  0  0  0
 11 37  2  0  0  0  0
 12 13  2  0  0  0  0
 13 14  1  0  0  0  0
 13 15  1  0  0  0  0
 15 16  1  0  0  0  0
 15 17  2  0  0  0  0
 17 18  1  0  0  0  0
 17 37  1  0  0  0  0
 18 19  1  0  0  0  0
 18 36  1  0  0  0  0
 19 20  1  0  0  0  0
 19 24  1  0  0  0  0
 19 35  1  0  0  0  0
 20 21  1  0  0  0  0
 20 22  1  0  0  0  0
 20 23  1  0  0  0  0
 24 25  1  0  0  0  0
 24 27  1  0  0  0  0
 24 31  1  0  0  0  0
 25 26  1  0  0  0  0
 27 28  1  0  0  0  0
 27 29  1  0  0  0  0
 27 30  1  0  0  0  0
 31 32  1  0  0  0  0
 31 33  1  0  0  0  0
 31 34  1  0  0  0  0
 39 40  1  0  0  0  0
 39 41  2  0  0  0  0
 41 42  1  0  0  0  0
 43 44  1  0  0  0  0
 43 45  1  0  0  0  0
 43 46  1  0  0  0  0
M  END
$$$$
