
  -OEChem-12122420533D

 20 19  0     0  0  0  0  0  0999 V2000
   -3.4855    2.5914    1.2173 O   0  0  0  0  0  0  0  0  0  0  0  0
   -3.1186    1.5422   -0.0092 S   0  0  0  0  0  0  0  0  0  0  0  0
   -4.1629    0.5157   -0.0070 O   0  0  0  0  0  0  0  0  0  0  0  0
   -2.8317    2.3271   -1.2013 O   0  0  0  0  0  0  0  0  0  0  0  0
   -1.5697    0.8694    0.6333 C   0  0  0  0  0  0  0  0  0  0  0  0
   -0.9585   -0.1120   -0.3667 C   0  0  0  0  0  0  0  0  0  0  0  0
    0.3906   -0.6329    0.1461 C   0  0  0  0  0  0  0  0  0  0  0  0
    1.0674   -1.6000   -0.8264 C   0  0  0  0  0  0  0  0  0  0  0  0
    0.1651   -2.7349   -1.1534 N   0  0  0  0  0  0  0  0  0  0  0  0
    0.9627   -3.7125   -2.4236 Cl  0  0  0  0  0  0  0  0  0  0  0  0
   -0.0133   -3.7636    0.3093 Cl  0  0  0  0  0  0  0  0  0  0  0  0
    1.2391   -1.1060   -1.7878 H   0  0  0  0  0  0  0  0  0  0  0  0
    2.0309   -1.9469   -0.4356 H   0  0  0  0  0  0  0  0  0  0  0  0
    1.0866    0.2027    0.2903 H   0  0  0  0  0  0  0  0  0  0  0  0
    0.2690   -1.1129    1.1222 H   0  0  0  0  0  0  0  0  0  0  0  0
   -1.6427   -0.9482   -0.5307 H   0  0  0  0  0  0  0  0  0  0  0  0
   -0.8188    0.3883   -1.3305 H   0  0  0  0  0  0  0  0  0  0  0  0
   -0.9274    1.7357    0.8128 H   0  0  0  0  0  0  0  0  0  0  0  0
   -1.8150    0.3937    1.5858 H   0  0  0  0  0  0  0  0  0  0  0  0
   -4.3679    2.3438    1.5560 H   0  0  0  0  0  0  0  0  0  0  0  0
  1  2  1  0  0  0  0
  1 20  1  0  0  0  0
  2  3  2  0  0  0  0
  2  4  2  0  0  0  0
  2  5  1  0  0  0  0
  5  6  1  0  0  0  0
  5 18  1  0  0  0  0
  5 19  1  0  0  0  0
  6  7  1  0  0  0  0
  6 16  1  0  0  0  0
  6 17  1  0  0  0  0
  7  8  1  0  0  0  0
  7 14  1  0  0  0  0
  7 15  1  0  0  0  0
  8  9  1  0  0  0  0
  8 12  1  0  0  0  0
  8 13  1  0  0  0  0
  9 10  1  0  0  0  0
  9 11  1  0  0  0  0
M  END
$$$$
