
  -OEChem-12102412493D

 48 49  0     1  0  0  0  0  0999 V2000
   -0.2447   -7.3005   -1.9139 N   0  0  0  0  0  0  0  0  0  0  0  0
   -0.8380   -8.1919   -0.7905 S   0  0  2  0  0  0  0  0  0  0  0  0
   -1.4416   -9.5203   -1.0729 O   0  0  0  0  0  0  0  0  0  0  0  0
   -2.0528   -7.2793    0.2030 C   0  0  0  0  0  0  0  0  0  0  0  0
   -2.4033   -5.9856   -0.1923 C   0  0  0  0  0  0  0  0  0  0  0  0
   -1.8893   -5.5420   -1.0406 H   0  0  0  0  0  0  0  0  0  0  0  0
   -3.3844   -5.2791    0.4918 C   0  0  0  0  0  0  0  0  0  0  0  0
   -3.6490   -4.2742    0.1711 H   0  0  0  0  0  0  0  0  0  0  0  0
   -4.0297   -5.8532    1.6080 C   0  0  0  0  0  0  0  0  0  0  0  0
   -5.0047   -5.0835    2.2464 N   0  0  0  0  0  0  0  0  0  0  0  0
   -5.7877   -5.3289    3.3574 C   0  0  0  0  0  0  0  0  0  0  0  0
   -6.6561   -4.3352    3.6348 N   0  0  0  0  0  0  0  0  0  0  0  0
   -7.4362   -4.5434    4.7041 C   0  0  0  0  0  0  0  0  0  0  0  0
   -8.1501   -3.7599    4.9498 H   0  0  0  0  0  0  0  0  0  0  0  0
   -7.3615   -5.6898    5.4787 C   0  0  0  0  0  0  0  0  0  0  0  0
   -8.5054   -5.9335    6.9960 Br  0  0  0  0  0  0  0  0  0  0  0  0
   -6.4089   -6.6751    5.1122 C   0  0  0  0  0  0  0  0  0  0  0  0
   -6.2283   -7.8161    5.8236 N   0  0  0  0  0  0  0  0  0  0  0  0
   -5.3588   -8.9112    5.3862 C   0  0  2  0  0  0  0  0  0  0  0  0
   -6.0811   -9.8384    4.4036 C   0  0  0  0  0  0  0  0  0  0  0  0
   -5.4216  -10.6492    4.0867 H   0  0  0  0  0  0  0  0  0  0  0  0
   -6.9658  -10.2841    4.8725 H   0  0  0  0  0  0  0  0  0  0  0  0
   -6.4042   -9.2735    3.5247 H   0  0  0  0  0  0  0  0  0  0  0  0
   -4.8177   -9.6564    6.6245 C   0  0  1  0  0  0  0  0  0  0  0  0
   -4.0162  -10.7687    6.2125 O   0  0  0  0  0  0  0  0  0  0  0  0
   -3.1693  -10.4220    5.8864 H   0  0  0  0  0  0  0  0  0  0  0  0
   -4.0491   -8.7427    7.5780 C   0  0  0  0  0  0  0  0  0  0  0  0
   -3.6691   -9.3236    8.4230 H   0  0  0  0  0  0  0  0  0  0  0  0
   -3.1971   -8.2798    7.0636 H   0  0  0  0  0  0  0  0  0  0  0  0
   -4.6786   -7.9353    7.9609 H   0  0  0  0  0  0  0  0  0  0  0  0
   -5.6606  -10.1164    7.1559 H   0  0  0  0  0  0  0  0  0  0  0  0
   -4.5074   -8.4454    4.8823 H   0  0  0  0  0  0  0  0  0  0  0  0
   -6.9291   -8.0193    6.5268 H   0  0  0  0  0  0  0  0  0  0  0  0
   -5.6326   -6.4713    4.0330 N   0  0  0  0  0  0  0  0  0  0  0  0
   -5.2097   -4.1816    1.8329 H   0  0  0  0  0  0  0  0  0  0  0  0
   -3.6562   -7.1435    2.0215 C   0  0  0  0  0  0  0  0  0  0  0  0
   -4.1179   -7.5892    2.8886 H   0  0  0  0  0  0  0  0  0  0  0  0
   -2.6752   -7.8469    1.3241 C   0  0  0  0  0  0  0  0  0  0  0  0
   -2.2723   -9.0785    1.7925 O   0  0  0  0  0  0  0  0  0  0  0  0
   -3.1588  -10.1688    1.4646 C   0  0  0  0  0  0  0  0  0  0  0  0
   -2.7429  -11.0517    1.9531 H   0  0  0  0  0  0  0  0  0  0  0  0
   -3.1783  -10.3161    0.3820 H   0  0  0  0  0  0  0  0  0  0  0  0
   -4.1656   -9.9739    1.8509 H   0  0  0  0  0  0  0  0  0  0  0  0
    0.5356   -8.3703    0.3554 C   0  0  0  0  0  0  0  0  0  0  0  0
    0.1571   -8.8822    1.2399 H   0  0  0  0  0  0  0  0  0  0  0  0
    1.2871   -8.9691   -0.1619 H   0  0  0  0  0  0  0  0  0  0  0  0
    0.9237   -7.3794    0.5907 H   0  0  0  0  0  0  0  0  0  0  0  0
   -0.8697   -7.3038   -2.7232 H   0  0  0  0  0  0  0  0  0  0  0  0
  1  2  2  0  0  0  0
  1 48  1  0  0  0  0
  2  3  2  0  0  0  0
  2  4  1  0  0  0  0
  2 44  1  0  0  0  0
  4  5  2  0  0  0  0
  4 38  1  0  0  0  0
  5  6  1  0  0  0  0
  5  7  1  0  0  0  0
  7  8  1  0  0  0  0
  7  9  2  0  0  0  0
  9 10  1  0  0  0  0
  9 36  1  0  0  0  0
 10 11  1  0  0  0  0
 10 35  1  0  0  0  0
 11 12  1  0  0  0  0
 11 34  2  0  0  0  0
 12 13  2  0  0  0  0
 13 14  1  0  0  0  0
 13 15  1  0  0  0  0
 15 16  1  0  0  0  0
 15 17  2  0  0  0  0
 17 18  1  0  0  0  0
 17 34  1  0  0  0  0
 18 19  1  0  0  0  0
 18 33  1  0  0  0  0
 19 20  1  0  0  0  0
 19 24  1  0  0  0  0
 19 32  1  0  0  0  0
 20 21  1  0  0  0  0
 20 22  1  0  0  0  0
 20 23  1  0  0  0  0
 24 25  1  0  0  0  0
 24 27  1  0  0  0  0
 24 31  1  0  0  0  0
 25 26  1  0  0  0  0
 27 28  1  0  0  0  0
 27 29  1  0  0  0  0
 27 30  1  0  0  0  0
 36 37  1  0  0  0  0
 36 38  2  0  0  0  0
 38 39  1  0  0  0  0
 39 40  1  0  0  0  0
 40 41  1  0  0  0  0
 40 42  1  0  0  0  0
 40 43  1  0  0  0  0
 44 45  1  0  0  0  0
 44 46  1  0  0  0  0
 44 47  1  0  0  0  0
M  END
$$$$
