47
0 1 BrC16H22N5O2S
N                    -4.734218805295    -0.356923757847    -0.692691323026
S                    -6.162055592674    -0.245370201403    -0.091508784088
O                    -6.777188216571     1.032278298808     0.353337206384
C                    -6.414332286941    -1.407174539303     1.271064297435
C                    -5.667350043862    -2.589106926177     1.308371777630
H                    -4.932945766277    -2.788971538785     0.533059291730
C                    -5.860482426953    -3.485507313079     2.352009754283
H                    -5.278286930379    -4.404323710127     2.384984357936
C                    -6.795376566479    -3.214823094287     3.375526836438
N                    -6.913290785370    -4.175174420097     4.382868225412
C                    -7.707066216525    -4.241636304868     5.512991522767
N                    -8.575451453884    -3.260054537536     5.782325355402
C                    -9.296602154846    -3.429763341198     6.907641966815
H                   -10.010838076029    -2.645513226838     7.149398977975
C                    -9.159390166026    -4.527223143474     7.730157636711
Br                  -10.209266057178    -4.706366875171     9.321685265759
C                    -8.206963972752    -5.523395241980     7.360577484015
N                    -7.988926276998    -6.620408058850     8.117090970674
C                    -7.096789862473    -7.713895745855     7.736342114897
C                    -7.826398027078    -8.706746669978     6.820993532530
H                    -7.139094479488    -9.448742074026     6.405002612253
H                    -8.617729024651    -9.227824966316     7.366830215478
H                    -8.274244918010    -8.160890439224     5.986576063904
C                    -6.531524898620    -8.334825188589     9.036161658538
O                    -7.701590915178    -8.682682870792     9.814321138999
H                    -7.409971392869    -8.962124406200    10.696334091853
C                    -5.686552286722    -7.305010818250     9.798279174192
H                    -5.339091476843    -7.726051967696    10.749331210669
H                    -6.264060183394    -6.402237153317    10.009230287493
H                    -4.800976256706    -7.022166424664     9.220092528370
C                    -5.706171288386    -9.593539871079     8.746721425569
H                    -5.240909111949    -9.958752777173     9.669228214524
H                    -6.335882495724   -10.390914321112     8.347423373944
H                    -4.903659538366    -9.386404326554     8.030579106442
H                    -6.264770228084    -7.270503759729     7.185037851297
H                    -8.604512088259    -6.796969374008     8.903289563150
N                    -7.492586311453    -5.357664014698     6.236340701034
H                    -6.310415599039    -4.984341912359     4.299365082880
C                    -7.533825070313    -2.015887698582     3.331262554501
H                    -8.242947149935    -1.800571852271     4.117689185312
C                    -7.336670723458    -1.121647719977     2.279529193129
H                    -7.887879650491    -0.186843545868     2.244691763984
C                    -7.172387547278    -0.949694501136    -1.405796620056
H                    -8.204218776011    -0.969941853112    -1.053586063704
H                    -7.064747748442    -0.285049310979    -2.264493591082
H                    -6.811501950782    -1.950185103731    -1.642860273865
H                    -4.051603709583     0.038666089766    -0.041198054549
