20
0 1 C4Cl2H9NO3S
O                    -3.524117246560     2.726099512834     0.998840934976
S                    -3.153047629352     1.545667486230    -0.097633946800
O                    -4.198091873275     0.524929955001     0.014042982019
O                    -2.854933324633     2.184695197035    -1.370852836875
C                    -1.614517822926     0.941729071756     0.633190050071
C                    -0.978483704644    -0.109833815178    -0.280520945791
C                     0.370432101546    -0.622827903019     0.250205806879
C                     0.220019337405    -1.435663635831     1.537491587198
N                     1.556267699526    -1.813552188241     2.064035823739
Cl                    1.308558645979    -2.565474485794     3.675989883622
Cl                    2.267895025773    -3.059085685551     0.983473983326
H                    -0.211671662158    -0.822271798578     2.333154286541
H                    -0.424488220379    -2.310802925975     1.389068333573
H                     0.825220088240    -1.246300248630    -0.523614457497
H                     1.053866151910     0.214218957206     0.430395113368
H                    -1.671233163078    -0.947386881031    -0.415288871455
H                    -0.816901427780     0.335394558747    -1.266078072250
H                    -0.974489104634     1.819429442013     0.755040574810
H                    -1.891314308381     0.553664161121     1.615169160695
H                    -4.423290548505     2.541435864859     1.334006492284
