20
0 1 C4Cl2H9NO3S
O                    -3.545273433936     2.527603632956     1.193741928849
S                    -3.103817432052     1.529871149609    -0.048275926745
O                    -4.119378266051     0.476471350991    -0.123282102555
O                    -2.788479896114     2.357812769785    -1.203053495093
C                    -1.568260421484     0.867350007982     0.635905533512
C                    -0.900090672974    -0.069755997033    -0.371239684179
C                     0.401053348308    -0.645206129912     0.206994227751
C                     1.055645028730    -1.600992037546    -0.790926187591
N                     2.406632648368    -1.993646830218    -0.314324071620
Cl                    2.218262087573    -3.081868516047     1.104696025459
Cl                    3.188897840178    -2.936085353985    -1.626153075095
H                     0.424033916452    -2.474334099005    -0.992688688974
H                     1.240827482042    -1.082632955347    -1.736676900313
H                     1.104663295849     0.162290813398     0.437144228929
H                     0.191052552609    -1.171167356044     1.142986489366
H                    -1.589204207712    -0.882923730335    -0.622794379643
H                    -0.692233341317     0.480934929012    -1.293979491027
H                    -0.946073764825     1.735034572381     0.869002877124
H                    -1.842872235868     0.355291283194     1.561027648536
H                    -4.438653864706     2.256936199666     1.482539656016
