18
-1 1 C4H9O4S
O                     1.108561236350    -0.550577560411    -2.478940359077
C                    -0.133350651507    -1.029491270609    -1.943166965060
C                    -0.198527233627    -0.980434923897    -0.416123357457
C                     0.813771646210    -1.912059520860     0.264820146824
C                     0.717227793880    -1.896271407653     1.787138429481
S                     1.934678645094    -3.035628381658     2.554863964126
O                     1.717390968077    -2.870061506233     4.020727642827
O                     1.561764136210    -4.381986595012     2.023859864388
O                     3.257172426776    -2.537736873822     2.067370624436
H                     0.924283797779    -0.900838268078     2.193051296783
H                    -0.270412375167    -2.220424199821     2.131250214379
H                     1.841336944610    -1.630669713715     0.001681291250
H                     0.666565002743    -2.941048660506    -0.084192940901
H                    -1.216315533259    -1.261704925322    -0.110432552733
H                    -0.041459489259     0.055137566548    -0.086241264173
H                    -0.321297023849    -2.059046767455    -2.288108817331
H                    -0.901951254755    -0.385271384140    -2.383662071089
H                     1.819305032451    -1.016871463072    -2.010388176794
