
  -OEChem-12102412493D

 18 17  0     0  0  0  0  0  0999 V2000
   -0.3922   -2.3718   -2.4520 O   0  0  0  0  0  0  0  0  0  0  0  0
   -0.0209   -1.0969   -1.9085 C   0  0  0  0  0  0  0  0  0  0  0  0
   -0.1393   -1.0249   -0.3855 C   0  0  0  0  0  0  0  0  0  0  0  0
    0.8261   -1.9699    0.3434 C   0  0  0  0  0  0  0  0  0  0  0  0
    0.7429   -1.8613    1.8627 C   0  0  0  0  0  0  0  0  0  0  0  0
    1.9239   -2.9985    2.6886 S   0  0  0  0  0  0  0  0  0  0  0  0
    3.2648   -2.5456    2.2084 O   0  0  0  0  0  0  0  0  0  0  0  0
    1.6851   -2.7803    4.1442 O   0  0  0  0  0  0  0  0  0  0  0  0
    1.5303   -4.3536    2.1954 O   0  5  0  0  0  0  0  0  0  0  0  0
    0.9912   -0.8524    2.2084 H   0  0  0  0  0  0  0  0  0  0  0  0
   -0.2533   -2.1266    2.2311 H   0  0  0  0  0  0  0  0  0  0  0  0
    1.8570   -1.7605    0.0340 H   0  0  0  0  0  0  0  0  0  0  0  0
    0.6210   -3.0155    0.0810 H   0  0  0  0  0  0  0  0  0  0  0  0
   -1.1756   -1.2468   -0.0980 H   0  0  0  0  0  0  0  0  0  0  0  0
    0.0622    0.0111   -0.0779 H   0  0  0  0  0  0  0  0  0  0  0  0
   -0.6957   -0.3764   -2.3831 H   0  0  0  0  0  0  0  0  0  0  0  0
    1.0076   -0.8424   -2.2114 H   0  0  0  0  0  0  0  0  0  0  0  0
    0.1010   -3.0463   -1.9583 H   0  0  0  0  0  0  0  0  0  0  0  0
  1  2  1  0  0  0  0
  1 18  1  0  0  0  0
  2  3  1  0  0  0  0
  2 16  1  0  0  0  0
  2 17  1  0  0  0  0
  3  4  1  0  0  0  0
  3 14  1  0  0  0  0
  3 15  1  0  0  0  0
  4  5  1  0  0  0  0
  4 12  1  0  0  0  0
  4 13  1  0  0  0  0
  5  6  1  0  0  0  0
  5 10  1  0  0  0  0
  5 11  1  0  0  0  0
  6  7  2  0  0  0  0
  6  8  2  0  0  0  0
  6  9  1  0  0  0  0
M  CHG  1   9  -1
M  END
$$$$
