
  -OEChem-12122420533D

 20 19  0     0  0  0  0  0  0999 V2000
   -3.4998    2.5529    1.2485 O   0  0  0  0  0  0  0  0  0  0  0  0
   -3.1178    1.5364   -0.0010 S   0  0  0  0  0  0  0  0  0  0  0  0
   -4.1242    0.4709    0.0065 O   0  0  0  0  0  0  0  0  0  0  0  0
   -2.8829    2.3446   -1.1880 O   0  0  0  0  0  0  0  0  0  0  0  0
   -1.5403    0.9045    0.6125 C   0  0  0  0  0  0  0  0  0  0  0  0
   -0.9114   -0.0447   -0.4077 C   0  0  0  0  0  0  0  0  0  0  0  0
    0.3963   -0.6318    0.1401 C   0  0  0  0  0  0  0  0  0  0  0  0
    1.0509   -1.6325   -0.8135 C   0  0  0  0  0  0  0  0  0  0  0  0
    1.2689   -1.0215   -2.1506 N   0  0  0  0  0  0  0  0  0  0  0  0
    2.5495    0.2299   -2.0058 Cl  0  0  0  0  0  0  0  0  0  0  0  0
    1.8715   -2.3074   -3.2413 Cl  0  0  0  0  0  0  0  0  0  0  0  0
    1.9811   -2.0313   -0.3925 H   0  0  0  0  0  0  0  0  0  0  0  0
    0.3701   -2.4675   -1.0061 H   0  0  0  0  0  0  0  0  0  0  0  0
    1.1022    0.1696    0.3792 H   0  0  0  0  0  0  0  0  0  0  0  0
    0.2050   -1.1727    1.0753 H   0  0  0  0  0  0  0  0  0  0  0  0
   -1.6118   -0.8551   -0.6368 H   0  0  0  0  0  0  0  0  0  0  0  0
   -0.7189    0.4907   -1.3402 H   0  0  0  0  0  0  0  0  0  0  0  0
   -0.9178    1.7837    0.7972 H   0  0  0  0  0  0  0  0  0  0  0  0
   -1.7651    0.4108    1.5611 H   0  0  0  0  0  0  0  0  0  0  0  0
   -4.3842    2.2938    1.5729 H   0  0  0  0  0  0  0  0  0  0  0  0
  1  2  1  0  0  0  0
  1 20  1  0  0  0  0
  2  3  2  0  0  0  0
  2  4  2  0  0  0  0
  2  5  1  0  0  0  0
  5  6  1  0  0  0  0
  5 18  1  0  0  0  0
  5 19  1  0  0  0  0
  6  7  1  0  0  0  0
  6 16  1  0  0  0  0
  6 17  1  0  0  0  0
  7  8  1  0  0  0  0
  7 14  1  0  0  0  0
  7 15  1  0  0  0  0
  8  9  1  0  0  0  0
  8 12  1  0  0  0  0
  8 13  1  0  0  0  0
  9 10  1  0  0  0  0
  9 11  1  0  0  0  0
M  END
$$$$
