18
-1 1 C4H9O4S
O                    -0.392238600088    -2.371764542819    -2.452023590920
C                    -0.020910776153    -1.096894418760    -1.908467058488
C                    -0.139312203209    -1.024890704483    -0.385521584417
C                     0.826132537921    -1.969868739100     0.343407672285
C                     0.742911610887    -1.861277236217     1.862723678622
S                     1.923875942139    -2.998450576338     2.688603629676
O                     3.264840183392    -2.545643797370     2.208448416825
O                     1.685119614478    -2.780315051594     4.144211435984
O                     1.530319484417    -4.353572472311     2.195365404601
H                     0.991195197424    -0.852449129161     2.208427847707
H                    -0.253301139012    -2.126571705742     2.231094767226
H                     1.857035886166    -1.760503728652     0.033969742565
H                     0.621022503838    -3.015475006263     0.080960054443
H                    -1.175629595247    -1.246826721745    -0.097979801150
H                     0.062212528269     0.011074546580    -0.077895747969
H                    -0.695725836823    -0.376391737627    -2.383129639439
H                     1.007557081606    -0.842352914825    -2.211390493947
H                     0.101022363732    -3.046305230397    -1.958258257716
