16   
torsion grid (-165,)
C        1.0546044033   -0.0332423725    0.3327723802
C        3.2017275961    0.9665191933    1.2772416519
C        1.7415300298    0.6091736492    1.5347887596
C        0.4619812405    3.2320959811    3.4491019619
O        0.9432509067    1.7838746961    1.7920116464
O        1.4428086495    2.3424044211    3.0591621916
F        1.0371891740    4.0207528276    4.3893652152
F       -0.5921470516    2.5895626911    4.0362988626
H        0.0106499944   -0.2682226788    0.5565029362
H        1.0887279202    0.6320098337   -0.5356180487
H        1.5737018650   -0.9610402259    0.0753337162
H        3.6404834294    1.4700376655    2.1416220329
H        3.2871772652    1.6252128384    0.4068982710
H        3.7772480746    0.0555200459    1.0825779192
H        1.6552320863   -0.0451293407    2.4105721165
H        0.0833040648    3.8306035759    2.6179748490
16   
torsion grid (-150,)
C        1.0419597916    0.0018575684    0.3412672921
C        3.2248727313    0.9218234549    1.2834897227
C        1.7417520448    0.6625670260    1.5258284146
C        0.4406831284    3.2018024087    3.4500475848
O        1.0100240686    1.8948660306    1.7066456809
O        1.5183628624    2.4990514908    2.9471318408
F        0.9552790344    4.0460850735    4.3765544632
F       -0.4421967572    2.3736470748    4.0876728154
H       -0.0181699121   -0.1618614677    0.5523568574
H        1.1320952272    0.6198931509   -0.5574462196
H        1.5109719160   -0.9658987964    0.1410402708
H        3.6756386741    1.4414739396    2.1321015413
H        3.3656747172    1.5305688669    0.3845278334
H        3.7496425372   -0.0294371939    1.1462156311
H        1.6002964335    0.0597012189    2.4306952588
H       -0.0994168491    3.7539929550    2.6784774739
16   
torsion grid (-135,)
C        1.0280160585    0.0351560368    0.3518559173
C        3.2332797827    0.8912065476    1.3019676604
C        1.7336315798    0.7215594939    1.5179502971
C        0.4386692386    3.1581444038    3.4403061571
O        1.0648984419    2.0012452714    1.6118040618
O        1.5694553823    2.6569374420    2.8228961676
F        0.8877302507    4.0356813048    4.3688283398
F       -0.2482435545    2.1714845612    4.0968016197
H       -0.0439712200   -0.0625965200    0.5432066434
H        1.1717582782    0.5987431710   -0.5751972964
H        1.4498340724   -0.9648415910    0.2148004268
H        3.6892466913    1.4331625584    2.1337454939
H        3.4272779610    1.4419495736    0.3759576016
H        3.7114083315   -0.0913609402    1.2302293140
H        1.5383034222    0.1779354054    2.4496887823
H       -0.2438250685    3.6457260820    2.7417652753
16   
torsion grid (-120,)
C        1.0139242330    0.0672049212    0.3574887001
C        3.2254305676    0.8733805508    1.3364507833
C        1.7140651291    0.7817683200    1.5096672330
C        0.4575641912    3.1034477005    3.4236006050
O        1.1026267813    2.0968824174    1.5107108550
O        1.5928456564    2.8111274749    2.6895043775
F        0.8444203331    4.0097816252    4.3512983722
F       -0.0023620516    1.9952708581    4.0884836421
H       -0.0670054776    0.0277807636    0.5171585895
H        1.2125896023    0.5742115074   -0.5918071417
H        1.3924779859   -0.9566858986    0.2860984815
H        3.6779802937    1.4388866033    2.1543199284
H        3.4740204477    1.3646414146    0.3902652065
H        3.6605221796   -0.1315591289    1.3328322533
H        1.4636869980    0.2986155727    2.4608163641
H       -0.3553172215    3.4953780985    2.8097182121
16   
torsion grid (-105,)
C        1.0034726877    0.0972328951    0.3431966711
C        3.1973317226    0.8638414228    1.3915097167
C        1.6777849096    0.8327448719    1.4975084442
C        0.5002315443    3.0447352420    3.4103252563
O        1.1165028368    2.1718325362    1.4085966604
O        1.5803890739    2.9537319829    2.5506630942
F        0.8179449382    4.0154480685    4.2974969763
F        0.3214707428    1.8805251861    4.1172991764
H       -0.0845239429    0.1047494843    0.4522097538
H        1.2651547446    0.5559360878   -0.6152646478
H        1.3439929180   -0.9423685657    0.3318405846
H        3.6320368799    1.4483546840    2.2056740887
H        3.5067591333    1.3050802778    0.4386559627
H        3.5951023492   -0.1547612546    1.4504584868
H        1.3670894096    0.3983427546    2.4528990485
H       -0.4332702993    3.2747071271    2.8935371888
16   
torsion grid (-90,)
C        1.0045929759    0.1217953502    0.2819586821
C        3.1272993731    0.8602252986    1.4848087789
C        1.6044996040    0.8625426682    1.4736142974
C        0.5919996526    2.9923884632    3.4134726509
O        1.0738855964    2.2102744439    1.3104467869
O        1.5234372932    3.0750491400    2.3951414690
F        0.7660913331    4.1005401744    4.1700284422
F        0.8252337748    1.9080250686    4.2277954100
H       -0.0881868106    0.1588782661    0.3021897523
H        1.3539974976    0.5553479940   -0.6598818067
H        1.3163572746   -0.9262364680    0.3176215618
H        3.5123250494    1.4462943959    2.3221463669
H        3.5185762769    1.2807696036    0.5529702872
H        3.4944019766   -0.1663165472    1.5872207663
H        1.2147102082    0.4454213728    2.4069868156
H       -0.4317514278    2.9251335764    3.0400862009
16   
torsion grid (-75,)
C        1.0071978891    0.1397852288    0.2389457147
C        3.0556727280    0.8661622312    1.5723323328
C        1.5379712265    0.8981239599    1.4525842185
C        0.6863669694    2.9364977755    3.4029550876
O        1.0427839145    2.2482642785    1.2182450909
O        1.4468069708    3.1711979612    2.2737417585
F        0.6585961383    4.1009256117    4.0925708516
F        1.2750552748    2.0035617371    4.2264654565
H       -0.0823516932    0.2087191259    0.1753546774
H        1.4391842824    0.5363092158   -0.6845198365
H        1.2834221165   -0.9150751731    0.3273848488
H        3.3944705491    1.4552721369    2.4268312222
H        3.5184596647    1.2656947878    0.6644989254
H        3.3924782283   -0.1662045620    1.7126735156
H        1.0754878099    0.5031453177    2.3632199389
H       -0.3241324209    2.5977531677    3.1633226587
16   
torsion grid (-60,)
C        1.0047825150    0.1622060380    0.2265153157
C        3.0228438884    0.8586967903    1.6200103417
C        1.5116866085    0.9365141928    1.4412575569
C        0.7316956756    2.8893987403    3.3896222008
O        1.0719303631    2.2915114332    1.1455377798
O        1.3565344778    3.2512386148    2.2143066228
F        0.5407611194    4.0370276746    4.0830314245
F        1.5314985261    2.0870441589    4.1708262508
H       -0.0799097209    0.2537898567    0.1242767236
H        1.4769030966    0.5287963449   -0.6895286124
H        1.2564137323   -0.8956038741    0.3473965197
H        3.3529653764    1.4806089843    2.4540160423
H        3.5293122933    1.1938445455    0.7096202439
H        3.3191693116   -0.1750936534    1.8261511444
H        0.9997830855    0.5739572195    2.3388615932
H       -0.2189007005    2.3761957342    3.2247053140
16   
torsion grid (-45,)
C        1.0027562587    0.1805946721    0.2207282719
C        3.0107322951    0.8339100200    1.6461437954
C        1.5056335613    0.9591970606    1.4352815586
C        0.7470578206    2.8716109193    3.3844212016
O        1.1218049487    2.3209538837    1.0973396363
O        1.2427592155    3.3125138802    2.1774857928
F        0.4652260809    3.9925577040    4.0904444141
F        1.6828756598    2.1721849280    4.1104532770
H       -0.0798995911    0.2804181225    0.1083283846
H        1.4860275537    0.5386863396   -0.6928669355
H        1.2482441737   -0.8778333166    0.3493819390
H        3.3500969868    1.4736621506    2.4622498671
H        3.5421656182    1.1184138514    0.7328272566
H        3.2688037682   -0.2012773364    1.8934779471
H        0.9602240106    0.6242204583    2.3227293795
H       -0.1470387126    2.2503194637    3.2881806757
16   
torsion grid (-30,)
C        1.0008748736    0.1945043409    0.2101685391
C        3.0013384697    0.7974802708    1.6649117890
C        1.5035711935    0.9687697721    1.4285844768
C        0.7584404676    2.8757448099    3.3883582499
O        1.1713773174    2.3394232705    1.0695636962
O        1.1214721742    3.3479204829    2.1487209694
F        0.4006373571    3.9785687996    4.0888271697
F        1.8080676696    2.2960759416    4.0616975150
H       -0.0797089391    0.3054174588    0.0909121317
H        1.4932157034    0.5501607896   -0.6996538912
H        1.2382462837   -0.8660887129    0.3373788696
H        3.3504900146    1.4341606005    2.4787480462
H        3.5535857895    1.0553075927    0.7560267094
H        3.2235369978   -0.2432934073    1.9243312423
H        0.9315349003    0.6538418966    2.3056130400
H       -0.0692106247    2.1621388944    3.3724179083
16   
torsion grid (-15,)
C        1.0055145339    0.2074917981    0.1893205438
C        2.9874994676    0.7638478559    1.6848838675
C        1.4983402905    0.9705925847    1.4193871182
C        0.7718262156    2.8835622790    3.4000409209
O        1.2083919024    2.3513827898    1.0584174804
O        0.9966755695    3.3545970748    2.1286823815
F        0.3275938420    3.9637658706    4.0861904474
F        1.9228824479    2.4542167522    4.0176862822
H       -0.0708033996    0.3362670459    0.0520326489
H        1.5187068304    0.5605441151   -0.7100126775
H        1.2256936665   -0.8572714858    0.3140300978
H        3.3368583224    1.3858727920    2.5093246948
H        3.5621695191    1.0156680615    0.7882919341
H        3.1809566416   -0.2842955650    1.9380768289
H        0.8998389905    0.6643243937    2.2812088635
H        0.0353248077    2.0795664382    3.4690450295
16   
torsion grid (0,)
C        1.0448272336    0.2063740152    0.0692467101
C        2.7981698216    0.7401706760    1.8262429914
C        1.3470189521    0.9277803129    1.3868436088
C        1.0100058456    2.9232266040    3.4138488353
O        1.0266817233    2.2927316535    1.0336370596
O        0.8570563233    3.3093779461    2.1065989124
F        0.1917481647    3.7321137942    4.1371165960
F        2.2887185538    3.1620237793    3.8672134528
H       -0.0038128860    0.3280212701   -0.2112219782
H        1.6738833540    0.5988847740   -0.7346975580
H        1.2602850566   -0.8594403205    0.1896827760
H        3.0398645137    1.2809583090    2.7417253297
H        3.4700448738    1.0926156505    1.0379946934
H        2.9927283897   -0.3236737564    1.9988150585
H        0.6428110560    0.5567932721    2.1419457033
H        0.7674386724    1.8821748204    3.6216142708
16   
torsion grid (15,)
C        0.9050093898    0.3154302124    1.1297489626
C        3.2344789690    1.2266773989    0.6635674149
C        1.8676901748    1.4884454665    1.2974968390
C        0.2380007362    3.4576035009    2.5525355112
O        1.4110421619    2.6614602814    0.5655490140
O        0.4321030051    3.5779498534    1.1971916847
F       -0.5463474009    2.3776345675    2.8821294736
F       -0.4508250206    4.5728344369    2.8945651399
H       -0.0892186179    0.5569983417    1.5062635151
H        0.8238849277    0.0511726913    0.0709147061
H        1.2782247696   -0.5569695702    1.6773074801
H        3.9135207931    2.0656173485    0.8337688303
H        3.1322425533    1.0709084498   -0.4144213802
H        3.6667521670    0.3216347349    1.1015000512
H        2.0151817410    1.7271572325    2.3539577680
H        1.1541650600    3.3990733423    3.1448445413
16   
torsion grid (30,)
C        0.8883258650    0.3271117226    1.0985929756
C        3.2358436835    1.2231712729    0.6887755265
C        1.8616135854    1.4840289118    1.3053569316
C        0.2542607296    3.4611523646    2.5462779173
O        1.4347429575    2.6773327396    0.5899920005
O        0.3432962210    3.4846359280    1.1740666282
F       -0.4014372909    2.3468191274    3.0147227112
F       -0.5118411004    4.5324844640    2.8628786709
H       -0.1091652435    0.5773503390    1.4618976860
H        0.8227061809    0.0814207249    0.0342367449
H        1.2381251544   -0.5586473004    1.6398433305
H        3.9206644254    2.0512815228    0.8873683660
H        3.1509582804    1.0891475367   -0.3935829831
H        3.6519282635    0.3062420582    1.1171442121
H        1.9893299402    1.7012138347    2.3693603726
H        1.2165537571    3.5288830419    3.0599884611
16   
torsion grid (45,)
C        0.8698002872    0.3456154197    1.0657537517
C        3.2377648095    1.2124577819    0.7025262393
C        1.8627324866    1.4760564587    1.3140970060
C        0.2659180529    3.4659792339    2.5479984578
O        1.4639704522    2.7000956007    0.6368406742
O        0.2725824323    3.3760245197    1.1736992397
F       -0.2712738152    2.3482006281    3.1430319027
F       -0.5623496761    4.4974698274    2.8385481103
H       -0.1243749146    0.6050546154    1.4328850599
H        0.8039256934    0.1331784809   -0.0057139123
H        1.1990776072   -0.5617447369    1.5831132499
H        3.9272228810    2.0343421203    0.9120429882
H        3.1590860910    1.0865490003   -0.3811691208
H        3.6465946468    0.2913600837    1.1285824919
H        1.9802282103    1.6608588528    2.3861432561
H        1.2550001647    3.6421304023    2.9785401571
16   
torsion grid (60,)
C        0.8599737077    0.3532136619    1.0294897660
C        3.2445787145    1.1981573393    0.7142367711
C        1.8692131435    1.4558022968    1.3257392458
C        0.2629102448    3.4900941868    2.5505923047
O        1.4900174505    2.7159988487    0.7057137617
O        0.2182300599    3.2549135341    1.1923598443
F       -0.1524917793    2.3965594094    3.2757065194
F       -0.6337273824    4.4764231958    2.7912739924
H       -0.1257509062    0.6059106617    1.4241884172
H        0.7764674331    0.1969118307   -0.0504431166
H        1.1852707389   -0.5826747949    1.4956033594
H        3.9347192878    2.0167918529    0.9354715870
H        3.1695859707    1.0845258387   -0.3710798384
H        3.6531961043    0.2735777622    1.1326299681
H        1.9764150443    1.5976407529    2.4063004011
H        1.2572975772    3.7797819118    2.8991365686
16   
torsion grid (75,)
C        0.8545132386    0.3346605128    0.9754576032
C        3.2483897409    1.1779194038    0.7302653233
C        1.8689177613    1.4099234144    1.3409568957
C        0.2619119485    3.5576920720    2.5609262717
O        1.4997982994    2.7090795671    0.7942202861
O        0.1810364993    3.1394599498    1.2467598956
F        0.0373132505    2.5208824955    3.4382596939
F       -0.7448277908    4.4443226302    2.7414816263
H       -0.1268802512    0.5614529655    1.3966944981
H        0.7598495684    0.2533790159   -0.1119223353
H        1.1827810558   -0.6316272574    1.3722448685
H        3.9390403042    1.9828660315    0.9966718063
H        3.1836073140    1.1165466247   -0.3600010725
H        3.6529227259    0.2344158138    1.1084117358
H        1.9587827064    1.4949289419    2.4290036275
H        1.2287490381    4.0077261073    2.7974888275
16   
torsion grid (90,)
C        0.8544761809    0.2762695571    0.8785644237
C        3.2398942056    1.1690652222    0.7750048587
C        1.8372128566    1.3391605492    1.3513658459
C        0.2841520290    3.6638183253    2.5795560428
O        1.4577746429    2.6648979164    0.8791317427
O        0.1300387737    3.0233118052    1.3640688720
F        0.3828016245    2.7658538114    3.6174845394
F       -0.8518458510    4.3722286547    2.7753764252
H       -0.1465432731    0.4680417715    1.2710435118
H        0.8051114090    0.2584406554   -0.2148361123
H        1.1780004802   -0.7087837240    1.2307593521
H        3.9106027074    1.9581058232    1.1264513529
H        3.2147665656    1.1898685348   -0.3186379510
H        3.6437006408    0.2036297838    1.0939275251
H        1.8827084804    1.3586195534    2.4443702868
H        1.1630539366    4.3111000489    2.6032888358
16   
torsion grid (105,)
C        0.8525341489    0.2254597205    0.7735005921
C        3.2255025817    1.1552748501    0.8379322349
C        1.7962076424    1.2679304408    1.3599831321
C        0.3136080638    3.7650762929    2.5865887674
O        1.4056419851    2.6125387581    0.9655410073
O        0.0900418246    2.9045225354    1.5266325287
F        0.7764919212    3.0919632933    3.6910388145
F       -0.8965011989    4.2814518673    2.9016947482
H       -0.1682761494    0.3804017662    1.1304711736
H        0.8537543174    0.2784225440   -0.3199168216
H        1.1726382860   -0.7774351918    1.0751330503
H        3.8675540508    1.9243400765    1.2760920263
H        3.2498676994    1.2541218395   -0.2516420219
H        3.6287387724    0.1736544479    1.1037803939
H        1.7904412598    1.2209454323    2.4534936605
H        1.0276602043    4.5549596158    2.3465962654
16   
torsion grid (120,)
C        0.8554681977    0.2103646369    0.7122169871
C        3.2297292447    1.1269868289    0.8588244620
C        1.7970137868    1.2068831533    1.3778540989
C        0.2997276254    3.8374050629    2.5901409173
O        1.4097298854    2.5737578347    1.0868429875
O        0.0990723165    2.8007941658    1.6965441382
F        0.9315813922    3.3984153907    3.7256573839
F       -0.9362941775    4.2608530446    2.9435433811
H       -0.1670690418    0.3376732239    1.0751594333
H        0.8615799863    0.3438164759   -0.3743146005
H        1.1752372550   -0.8119381307    0.9400192001
H        3.8696787596    1.8622217587    1.3541678357
H        3.2619319343    1.3012008414   -0.2211315135
H        3.6290797228    0.1281787869    1.0579395648
H        1.7829901558    1.0823233586    2.4664525904
H        0.8864483660    4.6546918562    2.1670026853
16   
torsion grid (135,)
C        1.0363275154    0.0641794782    0.2113115562
C        2.8017614741    1.1869787562    1.6680789167
C        1.3241715406    0.8667491249    1.4774432356
C        0.7505270149    4.0990728827    2.2591231272
O        0.5218185739    2.0596784837    1.3047295434
O        0.5295819289    2.7737082437    2.5846380587
F        2.0756803197    4.3437169878    2.0132027642
F        0.4014141353    4.8083826082    3.3590368384
H       -0.0337790044   -0.1334818216    0.1067066760
H        1.3845029140    0.6011322568   -0.6765930065
H        1.5647564379   -0.8921431910    0.2631984656
H        2.9615320719    1.7921389341    2.5625146532
H        3.1930979677    1.7329967998    0.8041313654
H        3.3671395196    0.2554246144    1.7780348102
H        0.9321077120    0.3343692597    2.3524294611
H        0.1752652879    4.4207248711    1.3889330860
16   
torsion grid (150,)
C        1.0318543824    0.0822293472    0.2049214965
C        2.8474917666    1.0870299307    1.6877391991
C        1.3541166820    0.8659989214    1.4741862789
C        0.6859978331    4.1532635556    2.2559282493
O        0.6510351710    2.1151426784    1.2879243227
O        0.7001507973    2.8112625796    2.5812670761
F        1.9268625875    4.5874697385    1.8732046600
F        0.3579172421    4.8038174165    3.3980933931
H       -0.0470244647   -0.0496551845    0.0871092560
H        1.4232368988    0.5962258693   -0.6785189648
H        1.4999313838   -0.9047127083    0.2631195348
H        3.0286596044    1.6960256055    2.5758874300
H        3.2866937901    1.5932499497    0.8223565334
H        3.3503329280    0.1234961134    1.8217743950
H        0.9103933113    0.3664072242    2.3439761981
H       -0.0217445045    4.3863772515    1.4579504937
16   
torsion grid (165,)
C        1.0296401603    0.1105453912    0.1993445863
C        2.8904975523    0.9890909539    1.7055451438
C        1.3880952897    0.8777415587    1.4690371246
C        0.6217113087    4.1919239704    2.2554077878
O        0.7850052164    2.1736861777    1.2636828452
O        0.8757945746    2.8692064821    2.5573377632
F        1.7299724729    4.8100344981    1.7445019984
F        0.3280813342    4.7869488395    3.4369735317
H       -0.0539925982    0.0552651856    0.0652519408
H        1.4702268152    0.5896256926   -0.6804981429
H        1.4248969198   -0.9069378686    0.2701870339
H        3.1022107979    1.5916129363    2.5914477057
H        3.3795342724    1.4525073631    0.8428320187
H        3.3181921152   -0.0076963408    1.8561251153
H        0.8949018770    0.4191689630    2.3349717584
H       -0.1988626991    4.3109044858    1.5447713410
16   
torsion grid (180,)
C        1.0298612841    0.1424669731    0.1949159451
C        2.9213664706    0.9049114515    1.7249344059
C        1.4192914912    0.9009688503    1.4607971419
C        0.5674816229    4.2096667815    2.2560531900
O        0.9195475900    2.2347238373    1.2253431307
O        1.0508916709    2.9420144313    2.5098272406
F        1.5021719792    4.9851695483    1.6284852661
F        0.3275714008    4.7594014548    3.4717822940
H       -0.0521762915    0.1638342751    0.0396815812
H        1.5208415961    0.5746261558   -0.6824732244
H        1.3483148926   -0.8998723883    0.2880617966
H        3.1612947193    1.5021547197    2.6073132911
H        3.4585599353    1.3192811477    0.8658923982
H        3.2715999895   -0.1184843607    1.8957618517
H        0.8780220402    0.4939839660    2.3238237646
H       -0.3387349818    4.1987814455    1.6467194784
