26   
torsion grid (-165,)
C       -0.7519559022   -1.0479363636    0.0252773275
C        0.1363265329    2.9158371689   -1.1646571504
C        1.6175932184   -1.0952336481   -0.0208466047
C        1.1356555601   -0.5662996082    1.3714086807
C        0.3095050109    0.4322219181   -1.6180508907
C       -0.4902895489    1.3006569919    0.6695697202
C        0.3887840762   -0.9651176610   -0.9580514543
C       -0.3477891318   -0.1556171463    1.1738943121
C        0.4070134461    1.5564917435   -0.5545219065
N       -1.7972859546   -1.7503681670   -0.1785540911
O       -0.6688155488    3.7351364436   -0.7693896316
O        0.9718825072    3.1757833511   -2.2136692721
O       -2.7265071286   -1.6198409133    0.8943380854
H        2.4793687068   -0.5403724064   -0.4049147297
H        1.9174739340   -2.1440935058    0.0530822300
H        1.2035477070   -1.3577650274    2.1227323561
H        1.7397073392    0.2718966640    1.7329077229
H        1.1119948136    0.5512099726   -2.3519172138
H       -0.6419175142    0.5110264799   -2.1561637355
H       -1.5354902408    1.4935200104    0.4108459430
H       -0.2285159150    2.0015030220    1.4688866909
H        0.3426538070   -1.7418590223   -1.7243827053
H       -0.9591457131   -0.3059252834    2.0639510094
H        1.4530210115    1.6028621951   -0.2274776985
H        0.9031637663    4.1342961851   -2.3857699418
H       -3.4409952540   -2.2146025908    0.6149170722
26   
torsion grid (-150,)
C       -0.7515516673   -1.0869937803    0.0837304867
C        0.1211182372    2.9107929624   -1.0330414210
C        1.6183905079   -1.1145190701    0.0417761902
C        1.1298526054   -0.6084315819    1.4402044486
C        0.3013473057    0.4245179988   -1.5366127385
C       -0.5099356526    1.2540431484    0.7629674359
C        0.3903521199   -0.9812075122   -0.8959840477
C       -0.3568680662   -0.2081574668    1.2459052752
C        0.3843685295    1.5342323818   -0.4583289818
N       -1.7914674849   -1.7937158478   -0.1326197781
O       -0.5741114910    3.7693723222   -0.5305282629
O        0.8713732918    3.1515524372   -2.1550240374
O       -2.7236456820   -1.6857874285    0.9403348875
H        2.4765004429   -0.5477212817   -0.3331197607
H        1.9266030113   -2.1618407403    0.1020614845
H        1.2038436345   -1.4090107013    2.1811986930
H        1.7257922453    0.2303424750    1.8137625806
H        1.1053120973    0.5600262319   -2.2657460257
H       -0.6479856779    0.5019206484   -2.0784218346
H       -1.5571739380    1.4424800903    0.5079254711
H       -0.2531281556    1.9456019996    1.5714496201
H        0.3519274171   -1.7477037410   -1.6729464822
H       -0.9684065338   -0.3763832188    2.1326208940
H        1.4299470667    1.5869603303   -0.1280989107
H        1.0348763056    4.1125433644   -2.1813546504
H       -3.4331252962   -2.2817142362    0.6508291178
26   
torsion grid (-135,)
C       -0.7487637934   -1.0910610487    0.0859284043
C        0.1029416476    2.9105676406   -1.0441438347
C        1.6211121451   -1.1047501790    0.0358522306
C        1.1343805166   -0.5979625413    1.4346741813
C        0.2896566324    0.4221422605   -1.5422387662
C       -0.5178183692    1.2533308039    0.7581849103
C        0.3891249588   -0.9812438947   -0.8980263474
C       -0.3552803503   -0.2067826748    1.2443751693
C        0.3699117780    1.5355171255   -0.4673076735
N       -1.7853489532   -1.8042899876   -0.1249172975
O       -0.5817385784    3.7698797469   -0.5328876342
O        0.8534528982    3.1551894523   -2.1748754323
O       -2.7147633078   -1.6983327518    0.9505651695
H        2.4745686522   -0.5338748693   -0.3435387043
H        1.9358777751   -2.1500194376    0.0978132596
H        1.2155522368   -1.3962016958    2.1774286994
H        1.7266810323    0.2452055662    1.8042020491
H        1.0898515387    0.5611452352   -2.2746661180
H       -0.6622375011    0.4921945951   -2.0805590837
H       -1.5670052404    1.4358405001    0.5066529704
H       -0.2615822339    1.9481594668    1.5640867379
H        0.3525670252   -1.7501140379   -1.6727227472
H       -0.9628290764   -0.3761474052    2.1336166863
H        1.4170718197    1.5952040941   -0.1424516764
H        1.2216218557    4.0526179614   -2.0923762656
H       -3.4220270024   -2.2987148561    0.6648515735
26   
torsion grid (-120,)
C       -0.7587842161   -1.0870321254    0.0908085427
C        0.0434193597    2.9167807477   -1.0582223409
C        1.6104040610   -1.0798103747    0.0202374356
C        1.1311956864   -0.5770519526    1.4231480248
C        0.2524255181    0.4348030124   -1.5469669460
C       -0.5430740741    1.2597268071    0.7596257936
C        0.3694647538   -0.9672405700   -0.9030669598
C       -0.3633168261   -0.1986470273    1.2454318470
C        0.3322706283    1.5501202828   -0.4723889681
N       -1.7899706153   -1.8108068935   -0.1101889896
O       -0.7045174410    3.7411017954   -0.5849682803
O        0.8302905673    3.1937637670   -2.1679186180
O       -2.7104451154   -1.7137371076    0.9735673135
H        2.4556825931   -0.5017341766   -0.3665201965
H        1.9346606710   -2.1223176340    0.0796150279
H        1.2254674355   -1.3745508106    2.1651506434
H        1.7194570887    0.2711051096    1.7877535601
H        1.0450606522    0.5819068592   -2.2858821336
H       -0.7048947856    0.4966960390   -2.0766706319
H       -1.5954982802    1.4328749220    0.5157371324
H       -0.2872900346    1.9569981854    1.5639449108
H        0.3328611460   -1.7365689509   -1.6773276548
H       -0.9617761266   -0.3729370667    2.1398758733
H        1.3823884824    1.6173138640   -0.1584566746
H        1.3578103984    3.9881990935   -1.9795443538
H       -3.4147882445   -2.3204571344    0.6940635031
26   
torsion grid (-105,)
C       -0.7329950237   -1.1101805413    0.1096253883
C        0.0903840528    2.8914436491   -1.0038849075
C        1.6361829220   -1.1207953649    0.0423105764
C        1.1586677803   -0.6336445917    1.4513597039
C        0.2923372450    0.4247095543   -1.5073660008
C       -0.4998003983    1.2256297828    0.8082381697
C        0.3975587183   -0.9862925064   -0.8810798549
C       -0.3322108173   -0.2401040083    1.2763038193
C        0.3813198579    1.5259540782   -0.4171183155
N       -1.7693790944   -1.8232763210   -0.1020007030
O       -0.7503366444    3.6636177724   -0.6111995772
O        0.9375349820    3.2134590894   -2.0658799178
O       -2.6899461948   -1.7321308043    0.9817371173
H        2.4864174863   -0.5439559083   -0.3353358755
H        1.9525267764   -2.1664078885    0.0877967883
H        1.2446220396   -1.4423643213    2.1821387103
H        1.7536203605    0.2040983089    1.8290173933
H        1.0861523326    0.5761000712   -2.2440895415
H       -0.6648382724    0.5018004848   -2.0353507991
H       -1.5497221362    1.4100852960    0.5629115806
H       -0.2411399465    1.9103749170    1.6229085223
H        0.3559114642   -1.7449126956   -1.6656103196
H       -0.9337364830   -0.4210649329    2.1673662624
H        1.4317558820    1.5766657136   -0.1014121336
H        1.5958342311    3.8623257993   -1.7682324752
H       -3.3994581278   -2.3285160148    0.6931934500
26   
torsion grid (-90,)
C       -0.7393101487   -1.1102949341    0.1297111312
C        0.0582304327    2.8822622439   -0.9899951229
C        1.6291076031   -1.1251645580    0.0413204259
C        1.1648112857   -0.6480653225    1.4582353318
C        0.2742539548    0.4343140071   -1.4856438950
C       -0.4955393290    1.2196594236    0.8418232946
C        0.3826738681   -0.9812095028   -0.8699977016
C       -0.3264698804   -0.2493585271    1.2989494175
C        0.3770954297    1.5285455368   -0.3875073186
N       -1.7780567545   -1.8213571611   -0.0769723896
O       -0.9051280847    3.5583848561   -0.7279196738
O        0.9656379802    3.2728032223   -1.9800383269
O       -2.6878826011   -1.7378924755    1.0159979458
H        2.4772173337   -0.5471175347   -0.3392360194
H        1.9436424762   -2.1717103913    0.0758696491
H        1.2547362543   -1.4629240193    2.1816668096
H        1.7653339096    0.1849662200    1.8375102556
H        1.0611698246    0.5896404220   -2.2292258101
H       -0.6885739138    0.5182518341   -2.0020201189
H       -1.5462097958    1.4075116801    0.6039552019
H       -0.2294573206    1.8977940927    1.6603104559
H        0.3323691160   -1.7335647811   -1.6600696204
H       -0.9208466721   -0.4353233022    2.1937572035
H        1.4301161822    1.5728428748   -0.0808713591
H        1.6994177560    3.7696629805   -1.5832220292
H       -3.4019059701   -2.3296479953    0.7290026751
26   
torsion grid (-75,)
C       -0.7469806490   -1.1131262513    0.1362576880
C        0.0100208243    2.8728751461   -0.9998741402
C        1.6209036342   -1.1224930578    0.0319041180
C        1.1649753455   -0.6503967464    1.4532215923
C        0.2510107806    0.4375007941   -1.4824188708
C       -0.5034361761    1.2153422186    0.8521740938
C        0.3680014822   -0.9791113941   -0.8705364655
C       -0.3280954450   -0.2542300636    1.3048310217
C        0.3596887508    1.5304516600   -0.3827665140
N       -1.7855399262   -1.8258661076   -0.0653150984
O       -1.0349527916    3.4556209513   -0.8513613846
O        0.9491308628    3.3292430087   -1.9247272759
O       -2.6881684083   -1.7475656673    1.0335513279
H        2.4652393586   -0.5415187673   -0.3526541700
H        1.9381408491   -2.1683487863    0.0614499371
H        1.2613069879   -1.4671648011    2.1736461899
H        1.7663877641    0.1826983964    1.8309763504
H        1.0319641499    0.5955059705   -2.2321976959
H       -0.7162097255    0.5211109633   -1.9900967912
H       -1.5554949289    1.4018267223    0.6203493004
H       -0.2322488048    1.8914104650    1.6710753419
H        0.3140296016   -1.7294613510   -1.6622971856
H       -0.9161939190   -0.4435577916    2.2030619146
H        1.4140324479    1.5767390390   -0.0814795651
H        1.7410980793    3.6555948434   -1.4666559202
H       -3.4039467926   -2.3383476601    0.7488805272
26   
torsion grid (-60,)
C       -0.7399818440   -1.0978934490    0.1367930464
C        0.0036483371    2.8811682314   -1.0103943318
C        1.6276639607   -1.1142296051    0.0285408855
C        1.1755533759   -0.6410222401    1.4506969100
C        0.2592331480    0.4502416370   -1.4830469860
C       -0.4881758185    1.2295764562    0.8536610243
C        0.3736917416   -0.9667308274   -0.8717661911
C       -0.3166622507   -0.2406439711    1.3048762752
C        0.3708713815    1.5440224104   -0.3848176318
N       -1.7803375728   -1.8084044029   -0.0630114127
O       -1.0797634341    3.4059298030   -0.9323393424
O        0.9583994631    3.3874137341   -1.8804716432
O       -2.6804123070   -1.7284502312    1.0373589645
H        2.4734563494   -0.5360583770   -0.3572132757
H        1.9415849406   -2.1610804811    0.0574165885
H        1.2710412758   -1.4581065126    2.1708468397
H        1.7798962998    0.1903868167    1.8275208783
H        1.0400771164    0.6046229768   -2.2343107251
H       -0.7079287806    0.5372628899   -1.9897832292
H       -1.5398501727    1.4209471468    0.6245232620
H       -0.2105414581    1.9034626069    1.6723264436
H        0.3161003351   -1.7164282860   -1.6638667770
H       -0.9037946467   -0.4285225085    2.2040369342
H        1.4253307186    1.5913175746   -0.0828960252
H        1.7993118451    3.5211682484   -1.4120877495
H       -3.3989935988   -2.3160189146    0.7530668909
26   
torsion grid (-45,)
C       -0.7482948024   -1.1099104083    0.1293667419
C       -0.0436867219    2.8831085898   -0.9959599205
C        1.6193410085   -1.1073654409    0.0193083470
C        1.1646596660   -0.6449559238    1.4441939756
C        0.2371741679    0.4542044384   -1.4829509361
C       -0.5140000836    1.2158046846    0.8575300148
C        0.3635703493   -0.9650829930   -0.8793710887
C       -0.3306009931   -0.2551330808    1.3012795490
C        0.3409595967    1.5436516456   -0.3805483465
N       -1.7831768403   -1.8275494057   -0.0734774799
O       -1.1365962945    3.3897655396   -0.9172579329
O        0.9016686726    3.4227819683   -1.8435793659
O       -2.6837772165   -1.7603195110    1.0269987027
H        2.4607001912   -0.5209119759   -0.3639094374
H        1.9414983066   -2.1518284583    0.0424974784
H        1.2667637665   -1.4651658591    2.1598382333
H        1.7629983046    0.1888823819    1.8252211196
H        1.0151941545    0.6156581033   -2.2363118212
H       -0.7310916004    0.5367893373   -1.9881559517
H       -1.5669858238    1.4006025022    0.6293115351
H       -0.2409133172    1.8884203493    1.6786067060
H        0.3111309301   -1.7112173536   -1.6751430714
H       -0.9155806885   -0.4517654324    2.1999472956
H        1.3944109571    1.5976207650   -0.0741626825
H        1.7844382495    3.3503988576   -1.4432665220
H       -3.3983330665   -2.3513890266    0.7397715377
26   
torsion grid (-30,)
C       -0.7463349188   -1.1083471161    0.1255350686
C       -0.0545184721    2.8935977584   -0.9820381743
C        1.6215744364   -1.0992047116    0.0201367447
C        1.1628946376   -0.6413896526    1.4452165818
C        0.2378329672    0.4622028345   -1.4804321686
C       -0.5199564570    1.2160503538    0.8599583029
C        0.3671760717   -0.9583623213   -0.8806540866
C       -0.3331300912   -0.2553692251    1.3002301700
C        0.3358206057    1.5500184203   -0.3759476756
N       -1.7790485163   -1.8278391531   -0.0816701633
O       -1.1441845187    3.4051776673   -0.8842459937
O        0.8878586764    3.4545759171   -1.8099733194
O       -2.6814794647   -1.7666274186    1.0172648210
H        2.4623023474   -0.5095668245   -0.3598199632
H        1.9467452576   -2.1427434104    0.0412848232
H        1.2659303107   -1.4630524851    2.1590285177
H        1.7581747468    0.1931452417    1.8294205474
H        1.0168658395    0.6241694574   -2.2334466330
H       -0.7291368331    0.5438534102   -1.9881429997
H       -1.5728284013    1.3992241794    0.6301132278
H       -0.2499448508    1.8879334780    1.6824343102
H        0.3180775831   -1.7027604459   -1.6782344726
H       -0.9193077015   -0.4556830491    2.1972923868
H        1.3877346336    1.6078460757   -0.0638855186
H        1.7772618161    3.1846995747   -1.5254284306
H       -3.3942428697   -2.3583669481    0.7269321334
26   
torsion grid (-15,)
C       -0.7502673932   -1.1183139136    0.1219122756
C       -0.0688079695    2.9036510852   -0.9482137017
C        1.6176761454   -1.0942560983    0.0267142363
C        1.1503933374   -0.6450459883    1.4517231806
C        0.2310233645    0.4665489197   -1.4714283032
C       -0.5420944404    1.2040849321    0.8674911493
C        0.3664342538   -0.9565076914   -0.8789373217
C       -0.3474509538   -0.2679889599    1.3020103789
C        0.3186027572    1.5496647007   -0.3615517399
N       -1.7765337966   -1.8447090981   -0.0931709802
O       -1.1295265254    3.4563006888   -0.7781964178
O        0.8553945618    3.4588794599   -1.7947085229
O       -2.6838317969   -1.7958067347    1.0020445378
H        2.4572800620   -0.4987279855   -0.3466813974
H        1.9480577514   -2.1361960979    0.0445798784
H        1.2559331590   -1.4688750631    2.1626333931
H        1.7386293451    0.1918105806    1.8414999956
H        1.0118293674    0.6305393567   -2.2232682692
H       -0.7338355418    0.5451941322   -1.9837845105
H       -1.5949224769    1.3814176416    0.6330520101
H       -0.2818312527    1.8750555552    1.6934353997
H        0.3251167409   -1.6971472756   -1.6804035246
H       -0.9361142878   -0.4759449313    2.1956821469
H        1.3677931738    1.6125401334   -0.0414656324
H        1.7078215754    3.0024561185   -1.6952351793
H       -3.3905130918   -2.3922222085    0.7064084487
26   
torsion grid (0,)
C       -0.7539082723   -1.1369277562    0.1342485636
C       -0.0920159437    2.9161986716   -0.8672145662
C        1.6148336955   -1.0895456467    0.0546518200
C        1.1343968242   -0.6601026374    1.4812224458
C        0.2240403469    0.4739307545   -1.4349209752
C       -0.5725920788    1.1784483440    0.9056931998
C        0.3678482704   -0.9544900821   -0.8572731185
C       -0.3660325414   -0.2961982364    1.3258509642
C        0.2925247728    1.5466414823   -0.3135640376
N       -1.7728800405   -1.8685845880   -0.0974713088
O       -1.0895177071    3.5312947729   -0.5734042912
O        0.7851836757    3.4470556531   -1.7752051620
O       -2.6878063563   -1.8413525533    0.9918298091
H        2.4506984198   -0.4815268000   -0.3067667771
H        1.9553893686   -2.1283059240    0.0630573492
H        1.2437206454   -1.4903839507    2.1839918421
H        1.7118073637    0.1784267755    1.8831233728
H        1.0126640412    0.6429265200   -2.1792039773
H       -0.7349854551    0.5487303456   -1.9589380379
H       -1.6262836904    1.3476199409    0.6690243296
H       -0.3244573268    1.8439487512    1.7391696528
H        0.3384235656   -1.6866432737   -1.6669542675
H       -0.9582177463   -0.5189725814    2.2135908790
H        1.3384954778    1.6200138725    0.0132118284
H        1.5275980761    2.8349129329   -1.9132285822
H       -3.3864143306   -2.4415698516    0.6848638781
26   
torsion grid (15,)
C       -0.7400637452   -1.1111265321    0.0850226391
C       -0.0372912438    2.9490472547   -0.9124985336
C        1.6302568338   -1.0717090370    0.0460779854
C        1.1271721738   -0.6264650781    1.4597175191
C        0.2723387358    0.4823290657   -1.4810714182
C       -0.5661371121    1.2090536937    0.8385878968
C        0.3995501941   -0.9416896458   -0.8882328677
C       -0.3695976110   -0.2618157284    1.2757709147
C        0.3187590243    1.5661424165   -0.3702196816
N       -1.7585653793   -1.8388350205   -0.1608938976
O       -0.9112368117    3.6601829676   -0.4761313306
O        0.7616892317    3.4074342073   -1.9263976901
O       -2.6934013663   -1.7996148606    0.9107828843
H        2.4742399118   -0.4702505187   -0.3070021403
H        1.9662957600   -2.1117158433    0.0702116343
H        1.2238415168   -1.4491854363    2.1731342339
H        1.6990858980    0.2157393322    1.8615057948
H        1.0857808014    0.6305740771   -2.2050096814
H       -0.6709915799    0.5525598613   -2.0339315072
H       -1.6168825064    1.3761717218    0.5864054920
H       -0.3313641106    1.8830419314    1.6682229917
H        0.3816572325   -1.6809903805   -1.6916896931
H       -0.9771116717   -0.4749657807    2.1554950316
H        1.3595751353    1.6449952732   -0.0298892131
H        1.2832763617    2.6739831587   -2.2939783616
H       -3.3878909136   -2.4008220227    0.5964450237
26   
torsion grid (30,)
C       -0.7450707213   -1.0766706492    0.0507306331
C       -0.0355159853    2.9990261606   -0.9205279267
C        1.6256465691   -1.0260454710    0.0318020290
C        1.1086445513   -0.5836690611    1.4411984223
C        0.2741112530    0.5220282765   -1.5059061688
C       -0.5867563664    1.2440217470    0.8077898253
C        0.4021105536   -0.9021376481   -0.9126685192
C       -0.3883502744   -0.2265323240    1.2450004243
C        0.3043603435    1.6053925202   -0.3958187808
N       -1.7585464639   -1.8080405939   -0.2051199235
O       -0.7993637018    3.7662441846   -0.3844594059
O        0.6969838232    3.4192356954   -2.0025943875
O       -2.7034145383   -1.7732374183    0.8579667518
H        2.4692180448   -0.4202077207   -0.3142973014
H        1.9663372746   -2.0644916464    0.0582956591
H        1.2037990973   -1.4057516618    2.1555354549
H        1.6726952635    0.2617215725    1.8472346230
H        1.0989639188    0.6724897095   -2.2165672721
H       -0.6642527434    0.5836315330   -2.0693423810
H       -1.6375361466    1.4068027774    0.5511548607
H       -0.3592474487    1.9182992803    1.6385989867
H        0.3946706347   -1.6414099525   -1.7162883624
H       -1.0022091948   -0.4429929604    2.1195102435
H        1.3428498178    1.6900530725   -0.0504778356
H        0.9607950447    2.6554761530   -2.5430879007
H       -3.3908619781   -2.3797765752    0.5384328350
26   
torsion grid (45,)
C       -0.7475831102   -1.0668199674    0.0427843058
C       -0.0209972284    3.0191184099   -0.8855021130
C        1.6235729319   -1.0166871764    0.0371968490
C        1.0992586702   -0.5849468385    1.4470925499
C        0.2817842820    0.5432739902   -1.4957542025
C       -0.5922797199    1.2474167375    0.8209476023
C        0.4050908586   -0.8856100762   -0.9128130688
C       -0.3969377013   -0.2270442195    1.2462497775
C        0.3025933790    1.6169227409   -0.3778138320
N       -1.7616855405   -1.7929475861   -0.2254650339
O       -0.7033877370    3.8180924259   -0.2904156944
O        0.6700676966    3.4160531279   -2.0096463080
O       -2.7134264034   -1.7637786576    0.8321802383
H        2.4686404560   -0.4081403792   -0.3000745798
H        1.9640484054   -2.0553596856    0.0577240434
H        1.1915011016   -1.4118769338    2.1562051925
H        1.6606312831    0.2580379649    1.8617237681
H        1.1121289493    0.7057173291   -2.1953926687
H       -0.6546782527    0.6044657626   -2.0640312475
H       -1.6428884855    1.4125667449    0.5635796274
H       -0.3661811980    1.9144912426    1.6576733106
H        0.4022438418   -1.6190036422   -1.7218474479
H       -1.0152185516   -0.4510894825    2.1157440562
H        1.3400580262    1.7012132964   -0.0289468469
H        0.6775073654    2.7027727829   -2.6698727341
H       -3.3991381031   -2.3680207421    0.5047123926
26   
torsion grid (60,)
C       -0.7587894265   -1.0615830808    0.0339445880
C       -0.0393200750    3.0310829278   -0.8571839685
C        1.6120968513   -1.0049441818    0.0242586785
C        1.0893267805   -0.5903976725    1.4398935494
C        0.2642014747    0.5678701943   -1.4893288885
C       -0.6079853349    1.2446903935    0.8380797302
C        0.3913872904   -0.8666801996   -0.9220086526
C       -0.4082855664   -0.2341758088    1.2461831121
C        0.2825638494    1.6280303051   -0.3590408540
N       -1.7711118168   -1.7883775864   -0.2392176530
O       -0.7181602328    3.8294569055   -0.2589959003
O        0.6664189543    3.4286006501   -1.9812965616
O       -2.7208328290   -1.7720204395    0.8210692187
H        2.4544154446   -0.3900199532   -0.3080860138
H        1.9557468209   -2.0427607808    0.0329336163
H        1.1848342506   -1.4250576112    2.1394926764
H        1.6493641704    0.2492490670    1.8630561879
H        1.0907971558    0.7484810711   -2.1867710916
H       -0.6748767932    0.6309827166   -2.0539937350
H       -1.6599273522    1.4099278118    0.5856028012
H       -0.3812145252    1.9025621178    1.6820540882
H        0.3891582866   -1.5915849083   -1.7387216789
H       -1.0240299467   -0.4698837743    2.1144053899
H        1.3214695636    1.7121040720   -0.0138854382
H        0.4848431100    2.8301319093   -2.7250168391
H       -3.4044925026   -2.3764165496    0.4896886524
26   
torsion grid (75,)
C       -0.7646868905   -1.0356881206    0.0088745607
C       -0.0395990935    3.0354767255   -0.9341482019
C        1.6062734545   -0.9819852541   -0.0006082492
C        1.0832816622   -0.5556416017    1.4114956041
C        0.2604896994    0.5787022133   -1.5290840066
C       -0.6109615620    1.2775682798    0.7929172275
C        0.3860358718   -0.8504121037   -0.9484764799
C       -0.4136106544   -0.1982095619    1.2142155561
C        0.2816743838    1.6474079380   -0.4059212185
N       -1.7778093680   -1.7639321913   -0.2575418249
O       -0.7984516391    3.8149874222   -0.4138831625
O        0.7437481779    3.4297083534   -2.0167944539
O       -2.7278938688   -1.7373243086    0.8027557187
H        2.4488807262   -0.3700837197   -0.3376367841
H        1.9494561556   -2.0198723535    0.0168036656
H        1.1766293196   -1.3851758457    2.1175085626
H        1.6447734331    0.2860609312    1.8286542856
H        1.0841153479    0.7593051595   -2.2285270078
H       -0.6800620739    0.6390251551   -2.0914509986
H       -1.6621860067    1.4423999990    0.5378313443
H       -0.3838519638    1.9419609918    1.6322442159
H        0.3831633690   -1.5828649475   -1.7585093498
H       -1.0302036957   -0.4258365875    2.0839957582
H        1.3217681257    1.7303940803   -0.0643074493
H        0.4599686022    2.9735162689   -2.8259931828
H       -3.4119272847   -2.3441779969    0.4767263044
26   
torsion grid (90,)
C       -0.7576990579   -1.0379927932    0.0043445514
C       -0.0162119823    3.0046819325   -0.9843652318
C        1.6133928600   -0.9998889499   -0.0065052422
C        1.0934555360   -0.5649503834    1.4042246521
C        0.2767726675    0.5623491691   -1.5424537711
C       -0.5886266577    1.2778552700    0.7767091949
C        0.3936547327   -0.8643931771   -0.9544433588
C       -0.4008201872   -0.1971878667    1.2057913353
C        0.3090855954    1.6352151544   -0.4211589815
N       -1.7751296431   -1.7618956158   -0.2572122993
O       -0.9051375904    3.7250988534   -0.6034498068
O        0.8702979256    3.4177589894   -1.9824399419
O       -2.7232367891   -1.7244887490    0.8047175190
H        2.4593071270   -0.3941410868   -0.3461950235
H        1.9504270126   -2.0397313793    0.0148918996
H        1.1804333925   -1.3929633847    2.1128840860
H        1.6613744260    0.2737870150    1.8186507716
H        1.0983921294    0.7396711528   -2.2441850132
H       -0.6653247195    0.6284728724   -2.1009652960
H       -1.6377497527    1.4484333127    0.5181886695
H       -0.3582559800    1.9441479575    1.6144323046
H        0.3854241065   -1.6005036322   -1.7612219133
H       -1.0189288528   -0.4167139688    2.0765847477
H        1.3504869457    1.7093965961   -0.0834949165
H        0.5520299739    3.1310566921   -2.8538362910
H       -3.4118572380   -2.3277943429    0.4818398087
26   
torsion grid (105,)
C       -0.7558982424   -1.0377266437    0.0276490684
C       -0.0016350895    2.9824650199   -0.9809023221
C        1.6152570439   -1.0186305790    0.0012009055
C        1.1077211596   -0.5855889151    1.4170920332
C        0.2799223689    0.5592831960   -1.5216503109
C       -0.5613974000    1.2745183272    0.8057532030
C        0.3904424103   -0.8698987451   -0.9381560512
C       -0.3844289827   -0.2034809416    1.2293341576
C        0.3340219482    1.6273377672   -0.3948200533
N       -1.7799823524   -1.7542900955   -0.2281444202
O       -1.0030345914    3.6185702330   -0.7569524362
O        0.9653968431    3.4308389379   -1.8808459732
O       -2.7210059320   -1.7125121217    0.8400921078
H        2.4633153903   -0.4176926978   -0.3415215541
H        1.9445968897   -2.0610582602    0.0162637792
H        1.1913672704   -1.4177102822    2.1213549231
H        1.6857683283    0.2460769796    1.8317459373
H        1.0947771960    0.7360003942   -2.2309831440
H       -0.6676810177    0.6374397201   -2.0683113240
H       -1.6094684398    1.4562030231    0.5517553739
H       -0.3192840285    1.9345808343    1.6457747761
H        0.3709038731   -1.6029424893   -1.7475990404
H       -0.9991476980   -0.4203514402    2.1031720835
H        1.3783059094    1.6903956680   -0.0668597660
H        0.6310495963    3.3390610103   -2.7880701389
H       -3.4171412408   -2.3082794082    0.5193771040
26   
torsion grid (120,)
C       -0.7576318573   -1.0393640880    0.0440673111
C       -0.0016661275    2.9585285714   -1.0087323739
C        1.6134421113   -1.0324747134    0.0061301257
C        1.1147071639   -0.5895072735    1.4221118348
C        0.2768665793    0.5434738883   -1.5197367010
C       -0.5463153538    1.2766372118    0.8081178642
C        0.3848635556   -0.8826163133   -0.9281131454
C       -0.3761880857   -0.1999944423    1.2390967075
C        0.3456953363    1.6175003949   -0.3987238936
N       -1.7862980372   -1.7527634139   -0.2018976202
O       -1.0664618725    3.5239796467   -0.9103997710
O        1.0103000588    3.4354503450   -1.8292909935
O       -2.7218724838   -1.6997953414    0.8707933329
H        2.4627030369   -0.4374702658   -0.3437949452
H        1.9377456173   -2.0764336504    0.0253117835
H        1.1967961502   -1.4185714936    2.1301862265
H        1.6992848828    0.2409883674    1.8299107662
H        1.0860308054    0.7148170294   -2.2367220963
H       -0.6747496204    0.6249885862   -2.0578969051
H       -1.5939371144    1.4637200756    0.5565645015
H       -0.2949129049    1.9385132194    1.6443457281
H        0.3577937901   -1.6199552385   -1.7334712643
H       -0.9880660154   -0.4084062402    2.1169837871
H        1.3914483310    1.6788857657   -0.0775028447
H        0.6535977370    3.5480371211   -2.7266123852
H       -3.4234671079   -2.2923218303    0.5560717850
26   
torsion grid (135,)
C       -0.7615755377   -1.0487316837    0.0473411880
C       -0.0131565235    2.9394102735   -1.0323359286
C        1.6093160045   -1.0415370080    0.0065624190
C        1.1121338724   -0.5905893294    1.4205912448
C        0.2695980968    0.5262815087   -1.5258775674
C       -0.5498096142    1.2719549302    0.7983167147
C        0.3796532805   -0.8965990510   -0.9270920115
C       -0.3790879000   -0.2022881527    1.2371021824
C        0.3422538594    1.6060419670   -0.4107899813
N       -1.7898710571   -1.7647179913   -0.1924417137
O       -1.1049929509    3.4651467426   -1.0066966321
O        1.0223486695    3.4424125508   -1.7894311944
O       -2.7231680146   -1.7071020038    0.8822216647
H        2.4582755429   -0.4486486881   -0.3476407278
H        1.9334382011   -2.0854510223    0.0313914389
H        1.1950446322   -1.4156105450    2.1332996862
H        1.6971277347    0.2422291659    1.8230680556
H        1.0753957337    0.6954599936   -2.2471640285
H       -0.6837298204    0.6066469719   -2.0604144442
H       -1.5971827900    1.4574859493    0.5445721521
H       -0.2980101077    1.9377752774    1.6314670345
H        0.3518671612   -1.6381074136   -1.7285827267
H       -0.9898608086   -0.4058734523    2.1168975425
H        1.3874854958    1.6703804010   -0.0899025012
H        0.6452398391    3.7676877755   -2.6260566853
H       -3.4252966784   -2.3010601206    0.5714564062
26   
torsion grid (150,)
C       -0.7609454227   -1.0526900033    0.0566979763
C       -0.0029351361    2.9230080761   -1.0635067296
C        1.6097347500   -1.0525123633    0.0127897424
C        1.1156512454   -0.5837285133    1.4221455135
C        0.2719910666    0.5018006049   -1.5351059085
C       -0.5422230042    1.2761540641    0.7807530717
C        0.3792756896   -0.9147066567   -0.9209679701
C       -0.3747412029   -0.1933965796    1.2360468746
C        0.3504069778    1.5936463047   -0.4327915192
N       -1.7913748515   -1.7689879436   -0.1727085178
O       -1.0961923987    3.4501343047   -1.0536652216
O        1.0417319909    3.4303325947   -1.7910878768
O       -2.7228108682   -1.6958847826    0.9028025011
H        2.4599064237   -0.4661983683   -0.3493755117
H        1.9309851079   -2.0969780660    0.0494543009
H        1.1969845301   -1.4006698206    2.1442922241
H        1.7035587736    0.2519735557    1.8143160554
H        1.0757525847    0.6613790203   -2.2608335349
H       -0.6820841765    0.5801250133   -2.0682687871
H       -1.5891388000    1.4613359281    0.5249129231
H       -0.2884325322    1.9507010016    1.6063021530
H        0.3484565265   -1.6651414248   -1.7139670765
H       -0.9849305130   -0.3851597359    2.1189142720
H        1.3954364881    1.6591681634   -0.1122693925
H        0.6531944025    3.9585024482   -2.5130616131
H       -3.4270933938   -2.2914142844    0.6000524931
26   
torsion grid (165,)
C       -0.7608576363   -1.0239240449    0.0466961980
C        0.1279335067    2.9107157092   -1.1284157187
C        1.6076490166   -1.1101812352   -0.0208330731
C        1.1457405557   -0.6034837044    1.3863151607
C        0.3107056797    0.4698667934   -1.5766285549
C       -0.4515885974    1.3056693541    0.7353795891
C        0.3732217234   -0.9411090040   -0.9441821946
C       -0.3316337297   -0.1625275867    1.2095205795
C        0.4395495450    1.5739656330   -0.4913661699
N       -1.8190865774   -1.7052704466   -0.1617422899
O       -0.9379594324    3.4925876345   -1.0949695098
O        1.1857522907    3.3806035470   -1.8528335810
O       -2.7364676377   -1.5817831682    0.9213761339
H        2.4745571600   -0.5603143441   -0.4001253638
H        1.8914251020   -2.1649527707    0.0280971116
H        1.2054433319   -1.4121993454    2.1197540985
H        1.7673673994    0.2161294430    1.7600487703
H        1.1118059007    0.5904150443   -2.3128952447
H       -0.6448567599    0.5759696642   -2.1021242459
H       -1.4937463516    1.5250253356    0.4874994510
H       -0.1651986117    1.9818655094    1.5488323799
H        0.3070337159   -1.7010050110   -1.7259067631
H       -0.9389274627   -0.3197960732    2.1011673211
H        1.4889623210    1.6079744843   -0.1814506483
H        0.8361203509    4.0982205194   -2.4153098377
H       -3.4651834451   -2.1553048205    0.6343841765
26   
torsion grid (180,)
C       -0.7654531756   -1.0344949061    0.0429726204
C        0.1118675043    2.9110424065   -1.1459594016
C        1.6037495318   -1.1001963849   -0.0153758051
C        1.1324776352   -0.5823930408    1.3846486115
C        0.2997313118    0.4526686390   -1.5910049457
C       -0.4814252964    1.3048345526    0.7087462651
C        0.3712365287   -0.9515178616   -0.9448871715
C       -0.3483238782   -0.1571881050    1.1983497606
C        0.4127701645    1.5677664479   -0.5161374140
N       -1.8170939609   -1.7270029095   -0.1622233842
O       -0.8781894509    3.5908738498   -0.9613521449
O        1.1043937574    3.2988056183   -1.9976540439
O       -2.7392999029   -1.6001589920    0.9167045784
H        2.4672850770   -0.5470667186   -0.3977415335
H        1.8964819219   -2.1518675711    0.0459400117
H        1.1971642226   -1.3824478874    2.1271100629
H        1.7452621757    0.2468871372    1.7517470828
H        1.1020384651    0.5732989561   -2.3254823812
H       -0.6537150632    0.5448213781   -2.1233955848
H       -1.5250084572    1.5104882489    0.4552664335
H       -0.2078310459    1.9937318962    1.5154790363
H        0.3146838134   -1.7199711734   -1.7189214134
H       -0.9570144294   -0.3111874616    2.0896065800
H        1.4605657287    1.6093548999   -0.1996152977
H        0.8320346078    4.1658159223   -2.3556725006
H       -3.4613515661   -2.1840988107    0.6339191494
