
  -OEChem-12102412483D

 27 29  0     0  0  0  0  0  0999 V2000
    0.3822    0.9516    0.8246 C   0  0  0  0  0  0  0  0  0  0  0  0
    0.7560    1.1995    2.1593 C   0  0  0  0  0  0  0  0  0  0  0  0
    1.0979   -2.3945   -1.5418 C   0  0  0  0  0  0  0  0  0  0  0  0
    2.1309   -3.0393   -0.8020 C   0  0  0  0  0  0  0  0  0  0  0  0
   -1.8967    0.3452    1.4976 C   0  0  0  0  0  0  0  0  0  0  0  0
   -0.9158    0.5415    0.5011 C   0  0  0  0  0  0  0  0  0  0  0  0
   -0.2052    0.9820    3.1279 C   0  0  0  0  0  0  0  0  0  0  0  0
   -1.4963    0.5604    2.8010 C   0  0  0  0  0  0  0  0  0  0  0  0
   -0.0313   -2.1843   -0.7881 C   0  0  0  0  0  0  0  0  0  0  0  0
    1.7466   -3.2916    0.4933 C   0  0  0  0  0  0  0  0  0  0  0  0
   -1.3299    0.6351    5.0330 C   0  0  0  0  0  0  0  0  0  0  0  0
   -1.2712    0.2902   -0.8623 N   0  0  0  0  0  0  0  0  0  0  0  0
   -2.6063   -1.8540   -0.5456 O   0  0  0  0  0  0  0  0  0  0  0  0
   -1.4771   -1.3082   -2.7915 O   0  0  0  0  0  0  0  0  0  0  0  0
   -0.1076    1.1643    4.4896 O   0  0  0  0  0  0  0  0  0  0  0  0
   -2.2543    0.4644    3.9454 O   0  0  0  0  0  0  0  0  0  0  0  0
    0.1280   -2.7657    0.8435 S   0  0  0  0  0  0  0  0  0  0  0  0
   -1.4913   -1.3354   -1.3307 S   0  0  0  0  0  0  0  0  0  0  0  0
    2.6971   -4.0604    1.7150 Cl  0  0  0  0  0  0  0  0  0  0  0  0
    1.1198    1.0676    0.0349 H   0  0  0  0  0  0  0  0  0  0  0  0
    1.7565    1.5307    2.4172 H   0  0  0  0  0  0  0  0  0  0  0  0
    1.1656   -2.1118   -2.5868 H   0  0  0  0  0  0  0  0  0  0  0  0
    3.1005   -3.3141   -1.2014 H   0  0  0  0  0  0  0  0  0  0  0  0
   -2.8998    0.0279    1.2390 H   0  0  0  0  0  0  0  0  0  0  0  0
   -1.1288   -0.3405    5.4951 H   0  0  0  0  0  0  0  0  0  0  0  0
   -1.7438    1.3457    5.7512 H   0  0  0  0  0  0  0  0  0  0  0  0
   -0.6508    0.7352   -1.5368 H   0  0  0  0  0  0  0  0  0  0  0  0
  1  2  1  0  0  0  0
  1  6  2  0  0  0  0
  1 20  1  0  0  0  0
  2  7  2  0  0  0  0
  2 21  1  0  0  0  0
  3  4  1  0  0  0  0
  3  9  2  0  0  0  0
  3 22  1  0  0  0  0
  4 10  2  0  0  0  0
  4 23  1  0  0  0  0
  5  6  1  0  0  0  0
  5  8  2  0  0  0  0
  5 24  1  0  0  0  0
  6 12  1  0  0  0  0
  7  8  1  0  0  0  0
  7 15  1  0  0  0  0
  8 16  1  0  0  0  0
  9 17  1  0  0  0  0
  9 18  1  0  0  0  0
 10 17  1  0  0  0  0
 10 19  1  0  0  0  0
 11 15  1  0  0  0  0
 11 16  1  0  0  0  0
 11 25  1  0  0  0  0
 11 26  1  0  0  0  0
 12 18  1  0  0  0  0
 12 27  1  0  0  0  0
 13 18  2  0  0  0  0
 14 18  2  0  0  0  0
M  END
$$$$
