27
0 1 C13H11NO2
C                     1.971917872013    -0.958491040368    -0.182049554888
C                     1.648355085976     0.233718296027     0.473935068122
C                     2.306989299279    -2.095318631974     0.562650341590
C                    -0.705295429875     0.890687643741     7.805702456713
C                     0.263135897473     0.735394346979     8.805425810562
C                     1.643593697604     0.285650794963     1.869841244399
C                     2.313256038063    -2.042944195982     1.956563779370
C                    -0.365193009031     0.618525099618     6.483237769194
C                     1.545593343211     0.308990600349     8.471030518309
C                     1.966397839316    -0.856636952938     2.620837248996
C                     0.929725739794     0.204026728956     6.130879106724
C                     1.907319214908     0.045019232604     7.139706171301
C                     1.983998961274    -0.876794635836     4.116757971008
N                     1.195032248100     0.048097800404     4.738016270919
O                     2.674966023860    -1.702866106707     4.737437589180
O                     3.198709838726    -0.296080322150     6.897658573060
H                     1.973299172702    -0.998051518996    -1.268124104184
H                     1.411363130387     1.125223799023    -0.100268778342
H                     2.567504483659    -3.020430332791     0.055592267358
H                    -1.712583149696     1.212986241297     8.052188581726
H                     0.017428456725     0.941686689953     9.843597561257
H                     1.432280103205     1.233092731591     2.359612512062
H                     2.584369313737    -2.910039791437     2.550256883829
H                    -1.112177845078     0.727376476137     5.698771729364
H                     2.313374806596     0.180509897918     9.228238661184
H                     0.557360384561     0.554336623645     4.137277753995
H                     3.217970862591    -0.910487153043     6.119666831191
