
  -OEChem-12102412483D

 15 14  0     0  0  0  0  0  0999 V2000
    3.3877   -3.7411    4.3914 C   0  0  0  0  0  0  0  0  0  0  0  0
    3.7811   -4.2110    0.9111 C   0  0  0  0  0  0  0  0  0  0  0  0
    4.2769   -1.5944    3.4376 C   0  0  0  0  0  0  0  0  0  0  0  0
    2.9906   -0.9357    2.9344 C   0  0  0  0  0  0  0  0  0  0  0  0
    4.0493   -2.7463    4.2647 N   0  0  0  0  0  0  0  0  0  0  0  0
    2.6110   -5.0955    4.6855 S   0  0  0  0  0  0  0  0  0  0  0  0
    3.1199   -2.5934    0.3477 S   0  0  0  0  0  0  0  0  0  0  0  0
    1.8930   -2.0194    1.9400 S   0  0  0  0  0  0  0  0  0  0  0  0
    4.2726   -4.6541    0.0396 H   0  0  0  0  0  0  0  0  0  0  0  0
    2.9691   -4.8610    1.2390 H   0  0  0  0  0  0  0  0  0  0  0  0
    4.5085   -4.0964    1.7161 H   0  0  0  0  0  0  0  0  0  0  0  0
    4.8482   -0.8604    4.0149 H   0  0  0  0  0  0  0  0  0  0  0  0
    4.8990   -1.8856    2.5835 H   0  0  0  0  0  0  0  0  0  0  0  0
    2.3660   -0.6172    3.7757 H   0  0  0  0  0  0  0  0  0  0  0  0
    3.2580   -0.0527    2.3472 H   0  0  0  0  0  0  0  0  0  0  0  0
  1  5  2  0  0  0  0
  1  6  2  0  0  0  0
  2  7  1  0  0  0  0
  2  9  1  0  0  0  0
  2 10  1  0  0  0  0
  2 11  1  0  0  0  0
  3  4  1  0  0  0  0
  3  5  1  0  0  0  0
  3 12  1  0  0  0  0
  3 13  1  0  0  0  0
  4  8  1  0  0  0  0
  4 14  1  0  0  0  0
  4 15  1  0  0  0  0
  7  8  1  0  0  0  0
M  END
$$$$
