
  -OEChem-12102412483D

 25 25  0     0  0  0  0  0  0999 V2000
    0.9975    1.1810    3.2213 C   0  0  0  0  0  0  0  0  0  0  0  0
    0.6928    0.2122    2.3311 C   0  0  0  0  0  0  0  0  0  0  0  0
    2.8307   -0.5163    2.9446 C   0  0  0  0  0  0  0  0  0  0  0  0
   -1.2228   -1.2551    1.5950 C   0  0  0  0  0  0  0  0  0  0  0  0
   -3.2849   -2.4042    1.6286 C   0  0  0  0  0  0  0  0  0  0  0  0
    4.9641   -3.6451    3.2132 C   0  0  0  0  0  0  0  0  0  0  0  0
   -0.5556    0.1103    1.5064 C   0  0  0  0  0  0  0  0  0  0  0  0
    3.9311   -1.2072    3.0595 N   0  0  0  0  0  0  0  0  0  0  0  0
    1.7189   -0.7189    2.1711 N   0  0  0  0  0  0  0  0  0  0  0  0
   -0.6198   -2.3108    1.6136 O   0  0  0  0  0  0  0  0  0  0  0  0
    2.9167   -3.1072    1.5998 O   0  0  0  0  0  0  0  0  0  0  0  0
    5.1915   -2.1514    1.0324 O   0  0  0  0  0  0  0  0  0  0  0  0
   -2.5643   -1.1477    1.6094 O   0  0  0  0  0  0  0  0  0  0  0  0
    2.6037    0.9561    3.9010 S   0  0  0  0  0  0  0  0  0  0  0  0
    4.1978   -2.5098    2.0499 S   0  0  0  0  0  0  0  0  0  0  0  0
    0.3879    2.0291    3.4999 H   0  0  0  0  0  0  0  0  0  0  0  0
   -4.3393   -2.1309    1.6311 H   0  0  0  0  0  0  0  0  0  0  0  0
   -3.0273   -2.9709    2.5256 H   0  0  0  0  0  0  0  0  0  0  0  0
   -3.0370   -2.9936    0.7435 H   0  0  0  0  0  0  0  0  0  0  0  0
    5.2416   -4.5329    2.6424 H   0  0  0  0  0  0  0  0  0  0  0  0
    5.8461   -3.1590    3.6300 H   0  0  0  0  0  0  0  0  0  0  0  0
    4.2401   -3.8904    3.9902 H   0  0  0  0  0  0  0  0  0  0  0  0
   -0.3116    0.2646    0.4466 H   0  0  0  0  0  0  0  0  0  0  0  0
   -1.2576    0.8921    1.7968 H   0  0  0  0  0  0  0  0  0  0  0  0
    1.5931   -1.6232    1.7046 H   0  0  0  0  0  0  0  0  0  0  0  0
  1  2  2  0  0  0  0
  1 14  1  0  0  0  0
  1 16  1  0  0  0  0
  2  7  1  0  0  0  0
  2  9  1  0  0  0  0
  3  8  2  0  0  0  0
  3  9  1  0  0  0  0
  3 14  1  0  0  0  0
  4  7  1  0  0  0  0
  4 10  2  0  0  0  0
  4 13  1  0  0  0  0
  5 13  1  0  0  0  0
  5 17  1  0  0  0  0
  5 18  1  0  0  0  0
  5 19  1  0  0  0  0
  6 15  1  0  0  0  0
  6 20  1  0  0  0  0
  6 21  1  0  0  0  0
  6 22  1  0  0  0  0
  7 23  1  0  0  0  0
  7 24  1  0  0  0  0
  8 15  1  0  0  0  0
  9 25  1  0  0  0  0
 11 15  2  0  0  0  0
 12 15  2  0  0  0  0
M  END
$$$$
