
  -OEChem-12122420523D

 25 25  0     0  0  0  0  0  0999 V2000
    1.0500    1.7311    2.9868 C   0  0  0  0  0  0  0  0  0  0  0  0
    0.7382    0.6869    2.1888 C   0  0  0  0  0  0  0  0  0  0  0  0
    3.0686    0.4580    2.1907 C   0  0  0  0  0  0  0  0  0  0  0  0
   -0.8875   -1.2076    1.9116 C   0  0  0  0  0  0  0  0  0  0  0  0
   -2.3512   -2.8429    2.7791 C   0  0  0  0  0  0  0  0  0  0  0  0
    5.9498   -0.8522    0.1109 C   0  0  0  0  0  0  0  0  0  0  0  0
   -0.6316    0.2815    1.7262 C   0  0  0  0  0  0  0  0  0  0  0  0
    4.2853    0.0391    1.9763 N   0  0  0  0  0  0  0  0  0  0  0  0
    1.8612   -0.0132    1.7518 N   0  0  0  0  0  0  0  0  0  0  0  0
   -0.1487   -2.0747    1.4857 O   0  0  0  0  0  0  0  0  0  0  0  0
    4.9792   -2.4293    2.0091 O   0  0  0  0  0  0  0  0  0  0  0  0
    3.4071   -1.6347    0.1890 O   0  0  0  0  0  0  0  0  0  0  0  0
   -2.0301   -1.4436    2.5803 O   0  0  0  0  0  0  0  0  0  0  0  0
    2.7878    1.8743    3.2157 S   0  0  0  0  0  0  0  0  0  0  0  0
    4.5413   -1.3614    1.1051 S   0  0  0  0  0  0  0  0  0  0  0  0
    0.3665    2.4300    3.4478 H   0  0  0  0  0  0  0  0  0  0  0  0
   -3.2926   -2.8466    3.3269 H   0  0  0  0  0  0  0  0  0  0  0  0
   -1.5623   -3.3297    3.3557 H   0  0  0  0  0  0  0  0  0  0  0  0
   -2.4586   -3.3445    1.8153 H   0  0  0  0  0  0  0  0  0  0  0  0
    6.2500   -1.7253   -0.4710 H   0  0  0  0  0  0  0  0  0  0  0  0
    5.6411   -0.0351   -0.5412 H   0  0  0  0  0  0  0  0  0  0  0  0
    6.7468   -0.5425    0.7867 H   0  0  0  0  0  0  0  0  0  0  0  0
   -0.7298    0.4803    0.6512 H   0  0  0  0  0  0  0  0  0  0  0  0
   -1.3848    0.8698    2.2497 H   0  0  0  0  0  0  0  0  0  0  0  0
    1.8183   -0.8456    1.1575 H   0  0  0  0  0  0  0  0  0  0  0  0
  1  2  2  0  0  0  0
  1 14  1  0  0  0  0
  1 16  1  0  0  0  0
  2  7  1  0  0  0  0
  2  9  1  0  0  0  0
  3  8  2  0  0  0  0
  3  9  1  0  0  0  0
  3 14  1  0  0  0  0
  4  7  1  0  0  0  0
  4 10  2  0  0  0  0
  4 13  1  0  0  0  0
  5 13  1  0  0  0  0
  5 17  1  0  0  0  0
  5 18  1  0  0  0  0
  5 19  1  0  0  0  0
  6 15  1  0  0  0  0
  6 20  1  0  0  0  0
  6 21  1  0  0  0  0
  6 22  1  0  0  0  0
  7 23  1  0  0  0  0
  7 24  1  0  0  0  0
  8 15  1  0  0  0  0
  9 25  1  0  0  0  0
 11 15  2  0  0  0  0
 12 15  2  0  0  0  0
M  END
$$$$
