28   
torsion grid (-165,)
C        2.4484145433   -1.5571142015    6.2353885433
C       -1.3948225470   -1.4834576588   -2.3965873060
C        2.0260882246   -0.4336306124    5.5162091418
C        2.1472756266   -2.8398042398    5.7655062399
C       -1.1488666594   -2.7813312685   -1.9346935599
C       -0.7727097377   -0.3864083794   -1.7888995002
C        1.3015482987   -0.5921338561    4.3332996014
C        1.4208682201   -2.9975134105    4.5829093796
C       -0.2847678322   -2.9888073701   -0.8557458575
C        0.0930823773   -0.5808334618   -0.7095265192
C        0.9858158873   -1.8748153335    3.8639301024
C        0.3191121866   -1.8821825493   -0.2546362299
C        0.2338659611   -2.0473981641    2.5787071361
O        1.9368585230   -3.5107455628    1.0997222841
O        2.3036449301   -0.9739846462    1.2434547816
S        1.4068917869   -2.1378681813    1.1571764741
H        3.0129571185   -1.4332714092    7.1559119379
H       -2.0651827331   -1.3269541908   -3.2375578821
H        2.2657022476    0.5642147723    5.8739341768
H        2.4798855614   -3.7151835460    6.3169985971
H       -1.6219681143   -3.6313944416   -2.4184741977
H       -0.9543173896    0.6182544252   -2.1606604507
H        0.9907877659    0.2802243617    3.7644667441
H        1.1997766661   -3.9935208853    4.2079902157
H       -0.0595100213   -3.9886264723   -0.4966824494
H        0.6069222031    0.2520175512   -0.2390519869
H       -0.3447082452   -2.9725304625    2.5378198490
H       -0.4183489227   -1.1974469323    2.3639993838
28   
torsion grid (-150,)
C        2.4097572047   -1.3155883449    6.1633383755
C       -1.3537606978   -1.2455146704   -2.3106985824
C        1.8374175749   -0.3131347284    5.3725189791
C        2.2723425059   -2.6575929866    5.7936491006
C       -1.2304899646   -2.5921212372   -1.9507529085
C       -0.6236602168   -0.2620792722   -1.6325866453
C        1.1293264815   -0.6528864947    4.2184562095
C        1.5607210070   -2.9951671141    4.6399941972
C       -0.3819852690   -2.9635410846   -0.9037064413
C        0.2275703935   -0.6204223844   -0.5840605720
C        0.9781130054   -1.9958745971    3.8472125822
C        0.3298182351   -1.9680814054   -0.2309758515
C        0.2419305803   -2.3597632503    2.5942947258
O        1.8055729680   -3.8356548021    0.9700737598
O        2.3921020817   -1.3588129530    1.3033759947
S        1.3971492558   -2.4308622666    1.1441429834
H        2.9620152004   -1.0517199887    7.0615318277
H       -2.0125989645   -0.9623661127   -3.1273091894
H        1.9471583708    0.7311710928    5.6526832449
H        2.7198423907   -3.4394648553    6.4014991543
H       -1.7873969524   -3.3537059313   -2.4895462908
H       -0.7097576153    0.7806414197   -1.9256959598
H        0.6996511638    0.1280984134    3.5960824489
H        1.4637350119   -4.0373910209    4.3459679684
H       -0.2521867717   -4.0048009627   -0.6237728947
H        0.8228766384    0.1208022897   -0.0596039628
H       -0.2219612490   -3.3470567770    2.6343710855
H       -0.5106679309   -1.6130149766    2.3310387990
28   
torsion grid (-135,)
C        2.3376577438   -1.0521585838    6.0729854206
C       -1.2775068216   -1.0143432427   -2.1391850938
C        1.5939177206   -0.1974946598    5.2523632285
C        2.3868185730   -2.4209084129    5.7877658506
C       -1.2974367246   -2.3889105984   -1.8773909964
C       -0.4411447692   -0.1659239859   -1.4039461053
C        0.9030181058   -0.7098184339    4.1524399947
C        1.6931587164   -2.9323006298    4.6890870315
C       -0.4867029524   -2.9220456715   -0.8710438391
C        0.3740602932   -0.6873608099   -0.3957688448
C        0.9428401085   -2.0808343470    3.8653859826
C        0.3332749485   -2.0600170728   -0.1400314942
C        0.2270888602   -2.6264046654    2.6696561500
O        1.5838086216   -4.1605981947    0.9154269222
O        2.4742559099   -1.7995278097    1.3872074238
S        1.3532591921   -2.7298579116    1.1852585942
H        2.8764039419   -0.6537932272    6.9287761145
H       -1.9076577035   -0.6044874491   -2.9240549666
H        1.5543767683    0.8668411659    5.4685924529
H        2.9663608504   -3.0885434577    6.4197359242
H       -1.9366725068   -3.0461714828   -2.4604137148
H       -0.4164950199    0.8983704798   -1.6214452042
H        0.3329039541   -0.0416590704    3.5107606513
H        1.7400578388   -3.9948462761    4.4622824064
H       -0.4685882221   -3.9881379587   -0.6653877972
H        1.0491266393   -0.0531704257    0.1708380604
H       -0.1290450743   -3.6491705651    2.8052374033
H       -0.6055626812   -1.9890667014    2.3644749709
28   
torsion grid (-120,)
C        2.2713805405   -0.8137755165    5.8367011072
C       -1.1461150761   -0.7898358470   -2.0011999154
C        1.3576989000   -0.1291228856    5.0288347369
C        2.5156327611   -2.1735418645    5.6141555861
C       -1.3077204524   -2.1716199587   -1.8485286404
C       -0.2200353812   -0.0931497527   -1.2158309081
C        0.6920682551   -0.8039794329    4.0027994900
C        1.8477953042   -2.8451760914    4.5888611700
C       -0.5493009198   -2.8644872028   -0.9003856215
C        0.5452881699   -0.7749496582   -0.2658729691
C        0.9278559620   -2.1671066274    3.7765815071
C        0.3628294309   -2.1522707807   -0.1192966652
C        0.2370609073   -2.8787607117    2.6569094516
O        1.3377692168   -4.4524993754    0.7733254687
O        2.5599193430   -2.2741444602    1.3618361397
S        1.3152171791   -3.0235828414    1.1364541372
H        2.7907038668   -0.2908275929    6.6355068760
H       -1.7367543790   -0.2558039854   -2.7408162944
H        1.1639963176    0.9267934615    5.1985840826
H        3.2276483160   -2.7083252933    6.2370724436
H       -2.0169443186   -2.7103615838   -2.4708924855
H       -0.0870894511    0.9769883326   -1.3491566502
H       -0.0168627241   -0.2696023522    3.3737309039
H        2.0476936759   -3.8989936175    4.4098917090
H       -0.6417391314   -3.9392261632   -0.7765221234
H        1.2871542520   -0.2613029180    0.3382387469
H        0.0020584599   -3.9191588109    2.8917337023
H       -0.6724298881   -2.3696443342    2.3326130297
28   
torsion grid (-105,)
C        2.1773589991   -0.6299516885    5.5575762758
C       -1.0163439703   -0.5900237053   -1.7878458363
C        1.1377796270   -0.1209352899    4.7727028837
C        2.5803033821   -1.9609769157    5.4000956201
C       -1.2902624205   -1.9625060258   -1.7697450381
C       -0.0331118915   -0.0526541645   -0.9487280014
C        0.5051463306   -0.9418970446    3.8356130555
C        1.9471681998   -2.7791358736    4.4633428821
C       -0.5892778529   -2.8066710741   -0.9035658625
C        0.6778693904   -0.8857940049   -0.0809309823
C        0.9007368414   -2.2779142853    3.6762465996
C        0.3824025404   -2.2515845885   -0.0691108931
C        0.2424255054   -3.1408198222    2.6472695228
O        1.0814233683   -4.7041441430    0.6394124679
O        2.5945241153   -2.7500344809    1.3262759348
S        1.2563484458   -3.3118220941    1.0927497643
H        2.6709887673    0.0060316259    6.2877768894
H       -1.5643759004    0.0609962427   -2.4638400814
H        0.8192598187    0.9113958531    4.8919061393
H        3.3908413239   -2.3592421768    6.0045210600
H       -2.0443596487   -2.3767399032   -2.4332997568
H        0.1860044746    1.0112369557   -0.9761648545
H       -0.3039604136   -0.5449135781    3.2260321435
H        2.2741521956   -3.8073910521    4.3315833806
H       -0.7718219989   -3.8766885914   -0.8805761443
H        1.4608607182   -0.4959431849    0.5625288129
H        0.1383031339   -4.1792943646    2.9724295978
H       -0.7336544217   -2.7686578209    2.3310925974
28   
torsion grid (-90,)
C        2.0319442196   -0.4309713350    5.2838470644
C       -0.8617825173   -0.4204973506   -1.5117274041
C        0.8919082553   -0.1144755166    4.5383325487
C        2.5939954536   -1.7094525494    5.1885548081
C       -1.2826421485   -1.7548643332   -1.5608088385
C        0.2073541748   -0.0437963782   -0.6907719209
C        0.3166265713   -1.0750372627    3.7020690189
C        2.0189241342   -2.6676712876    4.3527270752
C       -0.6418357787   -2.7210164314   -0.7804105785
C        0.8598284772   -0.9996247302    0.0926066249
C        0.8719027484   -2.3596674557    3.6069063046
C        0.4185840695   -2.3243291817    0.0369755915
C        0.2723661022   -3.3703981278    2.6807523586
O        0.8838829409   -4.8771516483    0.5642887244
O        2.6091832978   -3.1364069155    1.3205569904
S        1.2142186702   -3.5414913108    1.0941353823
H        2.4808164464    0.3138434721    5.9358814247
H       -1.3635905607    0.3260975480   -2.1216252358
H        0.4505664819    0.8762725386    4.6090410968
H        3.4831659992   -1.9573245517    5.7620410511
H       -2.1039141365   -2.0442640225   -2.2106631997
H        0.5377764183    0.9909463530   -0.6650981612
H       -0.5688126657   -0.8272160173    3.1207977526
H        2.4698884271   -3.6521349563    4.2638138137
H       -0.9371454732   -3.7653820484   -0.8120891934
H        1.7029863660   -0.7350525478    0.7231032610
H        0.3113904616   -4.3866254005    3.0839501397
H       -0.7562932744   -3.1447890596    2.3935801898
28   
torsion grid (-75,)
C        1.8615244710   -0.2721086131    4.9845351678
C       -0.6879508522   -0.2699164578   -1.2266767380
C        0.6493677687   -0.1501886292    4.2978855943
C        2.5683595079   -1.4796763793    4.9390261607
C       -1.2539667231   -1.5473155005   -1.3180037288
C        0.4609478166   -0.0570492377   -0.4564342246
C        0.1481487690   -1.2326274865    3.5698762333
C        2.0666174706   -2.5606293318    4.2123234121
C       -0.6774764673   -2.6191369234   -0.6312126826
C        1.0486634622   -1.1206299304    0.2335141953
C        0.8490731053   -2.4467444546    3.5251146028
C        0.4650793758   -2.3863733776    0.1375635088
C        0.3272063511   -3.5867856537    2.7063306009
O        0.7086358858   -5.0057274627    0.4828771453
O        2.6117995823   -3.4793720871    1.2744826167
S        1.1779281382   -3.7414142821    1.0776423580
H        2.2537132611    0.5677609179    5.5522126935
H       -1.1398081398    0.5600464861   -1.7635821353
H        0.0955328744    0.7844761147    4.3282444351
H        3.5130869142   -1.5771996157    5.4672020624
H       -2.1378281336   -1.7101434774   -1.9285919332
H        0.9017232873    0.9341011067   -0.3950948857
H       -0.7904362912   -1.1329868679    3.0296999538
H        2.6285877662   -3.4885664315    4.1589096779
H       -1.0858714957   -3.6228899123   -0.7001693326
H        1.9464896521   -0.9820986079    0.8271091943
H        0.5196139594   -4.5613435433    3.1654964455
H       -0.7372501067   -3.5094644831    2.4764397891
28   
torsion grid (-60,)
C        1.6547348627   -0.1277056127    4.6746119325
C       -0.4922092847   -0.1379149717   -0.9433697804
C        0.3868930905   -0.2065733623    4.0895310076
C        2.5032690058   -1.2408420246    4.6476637745
C       -1.2087320047   -1.3371711958   -1.0358088740
C        0.7308044781   -0.0928289492   -0.2645242728
C       -0.0273721692   -1.3930535319    3.4792614663
C        2.0872570525   -2.4271829009    4.0400063287
C       -0.7074510651   -2.4985724779   -0.4417581350
C        1.2427260395   -1.2468398371    0.3332744587
C        0.8161691620   -2.5129012365    3.4526335230
C        0.5109278164   -2.4325727196    0.2377310225
C        0.3880966974   -3.7624709840    2.7450477959
O        0.5201905073   -5.0862967449    0.4304031072
O        2.5869101789   -3.7789975776    1.2052902630
S        1.1266481923   -3.9031100944    1.0648114764
H        1.9801009285    0.7943283421    5.1494316345
H       -0.8857336151    0.7626270486   -1.4075798251
H       -0.2763278961    0.6542294774    4.1041575286
H        3.4905734745   -1.1834071595    5.0982493992
H       -2.1510007147   -1.3700542289   -1.5758217379
H        1.2856881567    0.8389066001   -0.1993328507
H       -1.0072556076   -1.4461713940    3.0105886001
H        2.7556737635   -3.2822506500    3.9977551101
H       -1.2341214850   -3.4453341439   -0.5161194039
H        2.1900068495   -1.2374964517    0.8624218733
H        0.7365435382   -4.6754555456    3.2371192829
H       -0.6916997350   -3.8270706090    2.5967639394
28   
torsion grid (-45,)
C        1.4205525859   -0.0259711976    4.3753572507
C       -0.2737048340   -0.0198992437   -0.6711411600
C        0.1245387983   -0.2981476544    3.9251035686
C        2.3960774982   -1.0287811605    4.3334430588
C       -1.1322490877   -1.1232988153   -0.7379594692
C        1.0063175833   -0.1504135739   -0.1201942425
C       -0.1915345324   -1.5655005551    3.4309542285
C        2.0787593163   -2.2967235396    3.8409829065
C       -0.7170740179   -2.3622199238   -0.2418107994
C        1.4326239629   -1.3833994507    0.3772715169
C        0.7815352806   -2.5737175725    3.3844424842
C        0.5589051201   -2.4707842040    0.3145641244
C        0.4606183140   -3.9056684046    2.7771871557
O        0.2983989875   -5.1239683280    0.3953199734
O        2.5315288562   -4.0639981823    1.0870295832
S        1.0589160478   -4.0378910789    1.0366328667
H        1.6688081309    0.9603903033    4.7585668144
H       -0.6008516577    0.9425892498   -1.0557471914
H       -0.6372466724    0.4763421885    3.9530829297
H        3.4043897542   -0.8223693856    4.6826049256
H       -2.1193290990   -1.0215958012   -1.1806543551
H        1.6714638954    0.7073516147   -0.0746638615
H       -1.1950121692   -1.7679462144    3.0642440462
H        2.8418838729   -3.0680912475    3.7844325111
H       -1.3589124360   -3.2364481218   -0.2970210185
H        2.4197814608   -1.5085084401    0.8090839110
H        0.9651130266   -4.7405294160    3.2712898341
H       -0.6118374457   -4.1047489142    2.7311463455
28   
torsion grid (-30,)
C        1.2155245693    0.0365251603    4.1840954167
C       -0.0839341659    0.0557550253   -0.4945402559
C       -0.0632047870   -0.3917287600    3.8111971800
C        2.2864738094   -0.8629868009    4.1504975752
C       -1.0403246236   -0.9647963233   -0.5330886992
C        1.2146662390   -0.2079694294   -0.0433189536
C       -0.2672346607   -1.7101590849    3.4003327505
C        2.0805990183   -2.1812574846    3.7367558756
C       -0.7062050629   -2.2514187924   -0.1015393520
C        1.5613724741   -1.4909173989    0.3833601208
C        0.8030189873   -2.6147855144    3.3535631929
C        0.5893160486   -2.4929384445    0.3586356882
C        0.6081428568   -3.9990105256    2.8161231631
O        0.0549515772   -5.1039235458    0.4233080855
O        2.4481796349   -4.2971784862    0.8928745960
S        0.9876705125   -4.1225247969    1.0026941263
H        1.3753192368    1.0634380084    4.5021807453
H       -0.3483904973    1.0569494015   -0.8246194690
H       -0.8993011292    0.3019866318    3.8353360917
H        3.2812695312   -0.5373707556    4.4430685543
H       -2.0425154582   -0.7611036469   -0.9002104090
H        1.9569568410    0.5850077692   -0.0220221600
H       -1.2597297357   -2.0337952181    3.0966370051
H        2.9165817945   -2.8744905044    3.6881774015
H       -1.4283531080   -3.0618442646   -0.1296417629
H        2.5630993895   -1.7189300939    0.7303246982
H        1.2874069970   -4.7331826688    3.2554250014
H       -0.4226625286   -4.3457672687    2.9111383944
28   
torsion grid (-15,)
C        1.0251716204    0.0598763329    4.1394475133
C        0.0857513664    0.0950282927   -0.4537555501
C       -0.2192382369   -0.4900311039    3.8117154580
C        2.1729289836   -0.7371262000    4.0826453400
C       -0.9630339828   -0.8303042011   -0.4284921178
C        1.3785446245   -0.2895035966   -0.0790184310
C       -0.3136656257   -1.8270760021    3.4231444123
C        2.0768559466   -2.0735333769    3.6875986369
C       -0.7270283820   -2.1415271037   -0.0072449631
C        1.6283323540   -1.5993086920    0.3334238008
C        0.8343938761   -2.6291177573    3.3496656591
C        0.5656121962   -2.5038894644    0.3740021014
C        0.7534573002   -4.0353418982    2.8427083517
O       -0.2715838391   -5.0209947772    0.5473430451
O        2.2469396800   -4.5255505266    0.6650531012
S        0.8507116007   -4.1712600477    0.9824000333
H        1.0983673659    1.1013662479    4.4412614116
H       -0.1021824115    1.1164232272   -0.7741931067
H       -1.1148298597    0.1238682721    3.8557122503
H        3.1415403839   -0.3180223686    4.3421505588
H       -1.9619820249   -0.5329808696   -0.7356481758
H        2.1922796390    0.4297072272   -0.1089819062
H       -1.2814293294   -2.2466995289    3.1594009168
H        2.9719322727   -2.6882105205    3.6277024223
H       -1.5221994732   -2.8802999728    0.0176678679
H        2.6256693403   -1.9209287492    0.6133813659
H        1.5862366663   -4.6570651609    3.1761500045
H       -0.1947376008   -4.5158331785    3.0914608756
28   
torsion grid (0,)
C        0.7455994533    0.0498991256    4.2180250816
C        0.3406670653    0.1200369085   -0.5237714595
C       -0.4415928898   -0.6610221813    4.0110092150
C        1.9769920787   -0.5772499935    4.0024317789
C       -0.8053865998   -0.6527871248   -0.3079610004
C        1.6117309849   -0.4220470962   -0.3019164190
C       -0.3965391166   -1.9896289390    3.5853758281
C        2.0195541791   -1.9056959500    3.5738593008
C       -0.6863711407   -1.9685097122    0.1456602303
C        1.7429243672   -1.7375480962    0.1472240330
C        0.8340941771   -2.6229817590    3.3589480409
C        0.5884322377   -2.4896961668    0.3706748939
C        0.8829600130   -4.0270165770    2.8424712743
O       -0.5238436551   -4.8706670075    0.7034214872
O        2.0330910948   -4.7081707932    0.5058679750
S        0.7447578975   -4.1732392622    0.9829687893
H        0.7109300357    1.0843448859    4.5494524090
H        0.2438350733    1.1444473219   -0.8736814385
H       -1.4012951305   -0.1798979054    4.1799883665
H        2.9027123851   -0.0320054139    4.1663762228
H       -1.7902229485   -0.2331604869   -0.4938688961
H        2.4998807646    0.1774037870   -0.4816620968
H       -1.3209083552   -2.5380492585    3.4190606897
H        2.9781979480   -2.3891009303    3.3998814467
H       -1.5593456405   -2.5924746557    0.3089613192
H        2.7195883443   -2.1834902081    0.3058941969
H        1.8293630224   -4.5229272746    3.0639267018
H        0.0498615060   -4.6349552851    3.2002452561
28   
torsion grid (15,)
C        0.7728198377   -3.5344656698    4.2319459571
C       -0.1733355284   -3.6382392716   -0.3596874728
C        2.0186809164   -2.9052448893    4.1442737843
C       -0.3856558112   -2.8340698481    3.8773335886
C        1.1609262805   -3.4178963199    0.0019563241
C       -1.0861618637   -2.5783800221   -0.3764593959
C        2.1050731704   -1.5864615219    3.6919250763
C       -0.2975664071   -1.5146012679    3.4314336780
C        1.5880651064   -2.1380505047    0.3592630791
C       -0.6724610232   -1.2948835993   -0.0105118286
C        0.9492394191   -0.8811763135    3.3269208392
C        0.6586571443   -1.0961959858    0.3585818640
C        1.0599663673    0.4998960107    2.7599393821
O        2.6011125850    0.6875465387    0.5685396351
O        0.1735372883    1.5166740946    0.4208525699
S        1.1703701024    0.5411850793    0.8959047385
H        0.7037370860   -4.5622444211    4.5784233577
H       -0.4996586910   -4.6371299818   -0.6371376687
H        2.9216311139   -3.4414048378    4.4242975838
H       -1.3566612883   -3.3172302995    3.9451338127
H        1.8690201369   -4.2418658194    0.0046404198
H       -2.1172416769   -2.7495569523   -0.6734665725
H        3.0756265434   -1.1031398459    3.6082337639
H       -1.1996140041   -0.9782243460    3.1471210309
H        2.6207601085   -1.9437399909    0.6281090047
H       -1.3594749322   -0.4542624531   -0.0192334200
H        0.1868840077    1.1155956184    2.9846404379
H        1.9706770724    1.0157244766    3.0693385287
28   
torsion grid (30,)
C        0.9643817727   -3.5351875097    4.2750170837
C       -0.3383140948   -3.5773494016   -0.3944745105
C        2.1443913580   -2.7866654752    4.2076782563
C       -0.2480321718   -2.9581494496    3.8818108436
C        0.9865883585   -3.4674646122    0.0436376750
C       -1.1539376574   -2.4432469907   -0.4744473170
C        2.1128700052   -1.4707230688    3.7401993671
C       -0.2784725642   -1.6421296479    3.4172060262
C        1.5010418633   -2.2245166383    0.4161475179
C       -0.6521003865   -1.1946184992   -0.0975605754
C        0.9018024526   -0.8896100995    3.3366381069
C        0.6671087917   -1.1066755492    0.3503605808
C        0.8897182829    0.4850119986    2.7424838578
O        2.7488896718    0.4571747035    0.8144400161
O        0.4821743771    1.5523918840    0.3033588253
S        1.2784198028    0.4817200825    0.9266093234
H        0.9886340136   -4.5604290607    4.6349484632
H       -0.7333979700   -4.5481648932   -0.6820448704
H        3.0884326617   -3.2283386324    4.5158036827
H       -1.1679634253   -3.5344066064    3.9320301246
H        1.6190108974   -4.3491946832    0.0969827026
H       -2.1765898152   -2.5294527309   -0.8313788926
H        3.0325498620   -0.8959082146    3.6653911657
H       -1.2206134841   -1.2032658460    3.0981105869
H        2.5260826555   -2.1150023797    0.7526629842
H       -1.2623165530   -0.2985061292   -0.1587305778
H       -0.0860747486    0.9683896219    2.8199359930
H        1.6612447726    1.1403902622    3.1530397005
28   
torsion grid (45,)
C        1.1763079532   -3.4943721930    4.4652668423
C       -0.5153701717   -3.4830289871   -0.5826274376
C        2.2797105969   -2.6371244294    4.3836143231
C       -0.0717333524   -3.0671748461    4.0001346674
C        0.7722635864   -3.5050704528   -0.0344016091
C       -1.2159393743   -2.2768509840   -0.6983393605
C        2.1368357935   -1.3599381193    3.8365782670
C       -0.2132879155   -1.7907564462    3.4515263614
C        1.3645361949   -2.3220631386    0.4117645117
C       -0.6345574163   -1.0860882695   -0.2540050599
C        0.8883131349   -0.9279503111    3.3647867328
C        0.6460877969   -1.1299106446    0.3005880626
C        0.7506514773    0.4082208673    2.7001896274
O        2.8195066869    0.2111324087    1.0111528458
O        0.7495132286    1.5343659687    0.2676937500
S        1.3568918078    0.3834681653    0.9574118432
H        1.2885480046   -4.4881860349    4.8908491401
H       -0.9717794273   -4.4073631345   -0.9270526197
H        3.2514076777   -2.9642658728    4.7441845757
H       -0.9320668242   -3.7284624946    4.0589398204
H        1.3143740652   -4.4428339601    0.0489671470
H       -2.2090655795   -2.2618700288   -1.1389189355
H        2.9979749471   -0.7031419186    3.7493792794
H       -1.1807948676   -1.4689222074    3.0736605152
H        2.3609232228   -2.3143600443    0.8404352011
H       -1.1513800545   -0.1355897744   -0.3476873819
H       -0.2846410685    0.7499095564    2.6423963169
H        1.3658797818    1.1863883974    3.1601509613
28   
torsion grid (60,)
C        1.4236097183   -3.4122031783    4.7598528476
C       -0.7171497109   -3.3486631575   -0.8605097691
C        2.4164433207   -2.4277844925    4.6892069401
C        0.1768152823   -3.1866070066    4.1677064977
C        0.4900839353   -3.5312763501   -0.1765250040
C       -1.2633514118   -2.0677332399   -1.0056641038
C        2.1637351231   -1.2229671033    4.0302485423
C       -0.0737388309   -1.9818645971    3.5062272340
C        1.1559671482   -2.4333590409    0.3733910801
C       -0.6067893909   -0.9613744980   -0.4597925587
C        0.9147844607   -0.9898299107    3.4353824359
C        0.5930205377   -1.1637524152    0.2257474782
C        0.6594900906    0.2753803878    2.6741891446
O        2.8358440651   -0.0738610561    1.1421448094
O        0.9653268035    1.4698052587    0.3061408121
S        1.4059137315    0.2426607857    0.9918787302
H        1.6212595891   -4.3490275560    5.2743760193
H       -1.2311468971   -4.2058983783   -1.2874621779
H        3.3877826474   -2.6000540191    5.1452248950
H       -0.5973131295   -3.9477871807    4.2166311139
H        0.9129551622   -4.5263384388   -0.0701420118
H       -2.1937732726   -1.9294525500   -1.5494990301
H        2.9421591498   -0.4693569714    3.9540072603
H       -1.0383419007   -1.8156479655    3.0323306922
H        2.0944902448   -2.5494895627    0.9054658800
H       -0.9996668527    0.0443168418   -0.5759119979
H       -0.4017949332    0.4801974199    2.5198222273
H        1.1303748257    1.1524002535    3.1283025634
28   
torsion grid (75,)
C        1.6463138152   -3.2877350709    5.0642300575
C       -0.8917375103   -3.2053371237   -1.1491738101
C        2.5131859834   -2.1926883779    4.9672869126
C        0.4256247303   -3.2699593667    4.3821745762
C        0.2189786933   -3.5400400849   -0.3663782132
C       -1.2781502727   -1.8675914969   -1.2962661421
C        2.1631682794   -1.0844243715    4.1942853343
C        0.0761587405   -2.1604486566    3.6077242256
C        0.9467470960   -2.5370976459    0.2794948897
C       -0.5601495200   -0.8554490353   -0.6536555666
C        0.9381306579   -1.0581344745    3.5114409519
C        0.5416915133   -1.2085631260    0.1285079962
C        0.5748434481    0.1068776580    2.6436219299
O        2.8205402571   -0.3708755465    1.2256175435
O        1.1407952310    1.3651292610    0.3636134304
S        1.4351254703    0.0751125411    1.0129181154
H        1.9212990057   -4.1486974054    5.6680383356
H       -1.4537323767   -3.9878811436   -1.6522335605
H        3.4648360410   -2.2046453961    5.4918750171
H       -0.2522561568   -4.1166322296    4.4520334487
H        0.5210074260   -4.5783916464   -0.2612155128
H       -2.1328430404   -1.6120809232   -1.9165381239
H        2.8480626003   -0.2465368027    4.1016606629
H       -0.8696943281   -2.1520325507    3.0711212723
H        1.8185205786   -2.7711470425    0.8818126220
H       -0.8284544475    0.1906375612   -0.7668312251
H       -0.4906745310    0.1657557733    2.4130878894
H        0.8991499068    1.0645126557    3.0623983897
28   
torsion grid (90,)
C        1.8431367345   -3.1254426024    5.3635808774
C       -1.0411718370   -3.0383537958   -1.4369256645
C        2.5707423791   -1.9377984016    5.2241651543
C        0.6760784236   -3.3173929559    4.6173324988
C       -0.0308723235   -3.5245223382   -0.5991939083
C       -1.2721552106   -1.6616423594   -1.5437806755
C        2.1344711788   -0.9463537670    4.3441637948
C        0.2398051628   -2.3236951707    3.7369726976
C        0.7515787316   -2.6355368811    0.1428397709
C       -0.4992198100   -0.7616658983   -0.8050043324
C        0.9618419870   -1.1291409999    3.5971763662
C        0.4996601795   -1.2656895478    0.0305314996
C        0.5098140036   -0.0870832016    2.6232754788
O        2.7860114522   -0.7156709993    1.2864650568
O        1.3254126495    1.2162403443    0.4415494928
S        1.4628014882   -0.1267645264    1.0343501040
H        2.1843865469   -3.8960235516    6.0499822023
H       -1.6449151146   -3.7332029661   -2.0147425172
H        3.4810648494   -1.7869960891    5.7981852217
H        0.1059573606   -4.2368525019    4.7218451584
H        0.1527344062   -4.5930883575   -0.5284110562
H       -2.0481411845   -1.2886758304   -2.2065771211
H        2.7133798372   -0.0350429222    4.2219212990
H       -0.6671076619   -2.4749993491    3.1556910409
H        1.5527148998   -2.9876357629    0.7851791767
H       -0.6464457775    0.3112508007   -0.8826902080
H       -0.5414195720   -0.1752004666    2.3429325467
H        0.6965649334    0.9304139990    2.9790449689
28   
torsion grid (105,)
C        1.9988254962   -2.9653651233    5.6469977224
C       -1.1751044083   -2.8541785115   -1.7035318938
C        2.5825288806   -1.7100455299    5.4414391626
C        0.9004327541   -3.3561163630    4.8745211101
C       -0.2589411823   -3.4891022460   -0.8568633036
C       -1.2700081018   -1.4577926625   -1.7253583796
C        2.0708374906   -0.8493778029    4.4692538939
C        0.3891721778   -2.4931452242    3.9018183893
C        0.5642598993   -2.7302589650   -0.0205086126
C       -0.4550551388   -0.6866755565   -0.8916373775
C        0.9666069175   -1.2320220829    3.6946113625
C        0.4472836069   -1.3381791637   -0.0487421656
C        0.4363733099   -0.3273358909    2.6283514009
O        2.7084709859   -1.1016051455    1.3368179213
O        1.4873850058    1.0174951411    0.5629093663
S        1.4634854734   -0.3657735958    1.0735400031
H        2.3981103734   -3.6344094750    6.4048213406
H       -1.8107811321   -3.4485478802   -2.3545100841
H        3.4391596462   -1.4043939184    6.0361423578
H        0.4420259944   -4.3291260836    5.0309502196
H       -0.1792194914   -4.5727290074   -0.8536459594
H       -1.9726441676   -0.9692470916   -2.3948276602
H        2.5371791883    0.1179154331    4.3004258378
H       -0.4656319667   -2.7980583196    3.3016462782
H        1.2976822760   -3.1985562314    0.6290036229
H       -0.4970677557    0.3982216191   -0.9011972203
H       -0.5825765125   -0.5703989958    2.3219708470
H        0.4802942339    0.7277510817    2.9109028592
28   
torsion grid (120,)
C        2.1390188628   -2.7587912794    5.8907276982
C       -1.2879981946   -2.6505541813   -1.9422678930
C        2.5602186337   -1.4537302977    5.6121653217
C        1.1385445221   -3.3479018211    5.1108809369
C       -0.4750811549   -3.4320905857   -1.1126081026
C       -1.2468385525   -1.2540437257   -1.8609388101
C        1.9830322122   -0.7410534729    4.5599178074
C        0.5632832043   -2.6333346503    4.0574522968
C        0.3786530374   -2.8202417513   -0.1909019009
C       -0.3988857111   -0.6295463855   -0.9414449584
C        0.9773487832   -1.3240773692    3.7759517364
C        0.3978025575   -1.4252028200   -0.1160888046
C        0.3823746072   -0.5734961445    2.6271622781
O        2.5972743386   -1.5374056879    1.3614228741
O        1.6760674675    0.7587774741    0.6802180940
S        1.4634561757   -0.6376693717    1.1033098480
H        2.5882310595   -3.3130546902    6.7106591373
H       -1.9478500624   -3.1307806347   -2.6599620569
H        3.3400067274   -0.9934516646    6.2130175426
H        0.8070775714   -4.3608648107    5.3237283039
H       -0.4986323274   -4.5156520068   -1.1898279699
H       -1.8684842103   -0.6510716174   -2.5170827083
H        2.3203294195    0.2686285646    4.3378340910
H       -0.2134565566   -3.0939320070    3.4504739582
H        1.0367997469   -3.4044799065    0.4452927457
H       -0.3351159281    0.4521509441   -0.8723770059
H       -0.5880624345   -0.9704662123    2.3235363072
H        0.2889209245    0.4978248841    2.8177205427
28   
torsion grid (135,)
C        2.2482222623   -2.5164480908    6.0822645560
C       -1.3634655074   -2.4250645013   -2.1280412416
C        2.4870449161   -1.1829110779    5.7331434644
C        1.3863068745   -3.2961344807    5.3036401493
C       -0.6588127142   -3.3457007504   -1.3431253848
C       -1.1867980961   -1.0499937521   -1.9379880373
C        1.8640406202   -0.6314542464    4.6117372141
C        0.7665878681   -2.7434717747    4.1810433352
C        0.2215782361   -2.8951447567   -0.3560456719
C       -0.3095920962   -0.5863917464   -0.9531180866
C        0.9959277747   -1.4064588437    3.8294530996
C        0.3767189754   -1.5189033152   -0.1727658096
C        0.3555500021   -0.8226951994    2.6090925581
O        2.4687584150   -1.9957051051    1.3697321086
O        1.8985429235    0.4401645656    0.7941225212
S        1.4807398541   -0.9340867220    1.1249613611
H        2.7319959287   -2.9460690369    6.9555826282
H       -2.0448823550   -2.7808197450   -2.8962781531
H        3.1589196343   -0.5744574241    6.3326285667
H        1.1995047965   -4.3331073968    5.5700164323
H       -0.7872131965   -4.4123345128   -1.5057057533
H       -1.7244564118   -0.3394690460   -2.5597636473
H        2.0578264745    0.4022299708    4.3349996512
H        0.1036120073   -3.3540971306    3.5720898004
H        0.7986682415   -3.5890255085    0.2477777857
H       -0.1392631014    0.4752428440   -0.8011671294
H       -0.5559783074   -1.3556308984    2.3303860490
H        0.1398054003    0.2434762162    2.6991840760
28   
torsion grid (150,)
C        2.3426117735   -2.2757029798    6.1852494926
C       -1.4183920753   -2.1918714692   -2.2903433087
C        2.3901248210   -0.9447811112    5.7575798416
C        1.6355469408   -3.2229144903    5.4364223419
C       -0.8287898429   -3.2362928329   -1.5681199629
C       -1.1099196237   -0.8607988577   -1.9884020329
C        1.7284687543   -0.5627549529    4.5881520205
C        0.9776884415   -2.8392696715    4.2664914526
C        0.0665990091   -2.9540606326   -0.5332066266
C       -0.2153883151   -0.5655159523   -0.9555125736
C        1.0116761085   -1.5055304362    3.8372156148
C        0.3544939994   -1.6194122906   -0.2380810928
C        0.3291163113   -1.0981067482    2.5674545315
O        2.3175400037   -2.4399940097    1.3275728306
O        2.0764911225    0.0773211178    0.8862022051
S        1.4791224172   -1.2490959321    1.1192782067
H        2.8557709585   -2.5740938668    7.0957448176
H       -2.1121820273   -2.4165629025   -3.0961104373
H        2.9426173392   -0.2063791918    6.3325390445
H        1.6013261879   -4.2593137503    5.7617048822
H       -1.0585427882   -4.2688425568   -1.8163980616
H       -1.5580398830   -0.0536068713   -2.5611986887
H        1.7749944048    0.4692349976    4.2491625865
H        0.4429368567   -3.5798718797    3.6770339040
H        0.5555139249   -3.7470106420    0.0245185585
H        0.0574121342    0.4589905918   -0.7201891892
H       -0.5198344576   -1.7447816161    2.3341940877
H        0.0056356467   -0.0555518204    2.5635301577
28   
torsion grid (165,)
C        2.4144246590   -2.0391759974    6.2465488277
C       -1.4265822316   -1.9546653939   -2.3863359830
C        2.2909119710   -0.7486418892    5.7211623003
C        1.8398089647   -3.1238443715    5.5749001245
C       -0.9606929964   -3.0995680288   -1.7290755095
C       -1.0021319954   -0.6843375440   -1.9808628850
C        1.5896651404   -0.5437129467    4.5306457157
C        1.1405123616   -2.9184473390    4.3840373022
C       -0.0734442297   -2.9796493605   -0.6563081625
C       -0.1147915696   -0.5512902851   -0.9090466198
C        1.0025719957   -1.6258816887    3.8591541737
C        0.3317143707   -1.7034167524   -0.2580212113
C        0.2778119292   -1.4069951738    2.5653940859
O        2.1772307506   -2.8101156180    1.2837589486
O        2.1611535850   -0.2555292208    1.0304288023
S        1.4482016998   -1.5390975824    1.1449459139
H        2.9592237678   -2.1997411796    7.1732755491
H       -2.1143835660   -2.0536017262   -3.2219488993
H        2.7420979205    0.0956641903    6.2355967817
H        1.9411980519   -4.1288392445    5.9758738239
H       -1.2805831796   -4.0847575241   -2.0571123586
H       -1.3543222081    0.2009791092   -2.5030248930
H        1.5063133583    0.4561839653    4.1126318403
H        0.7113284575   -3.7635107891    3.8522217178
H        0.3214923480   -3.8541871911   -0.1481422964
H        0.2475634465    0.4224979207   -0.5932324962
H       -0.4853946203   -2.1678817103    2.3852053286
H       -0.1685378997   -0.4138672787    2.4831815751
28   
torsion grid (180,)
C        2.4489818964   -1.8086530199    6.2625654641
C       -1.4256314432   -1.7227560392   -2.4203892447
C        2.1753368796   -0.5889733589    5.6341978813
C        2.0032157991   -3.0037973947    5.6879241431
C       -1.0685687396   -2.9531979585   -1.8568197932
C       -0.9004767181   -0.5306448947   -1.9083784117
C        1.4540333942   -0.5642540099    4.4385581931
C        1.2820145734   -2.9783310180    4.4922299457
C       -0.1895586057   -2.9971763081   -0.7712656379
C       -0.0206127573   -0.5618321332   -0.8230481389
C        0.9939457602   -1.7580143423    3.8645516535
C        0.3171813746   -1.7974925346   -0.2661050278
C        0.2455484928   -1.7335638042    2.5654913729
O        2.0539859329   -3.1731677312    1.2006236292
O        2.2297248476   -0.6127746778    1.1468890798
S        1.4225292102   -1.8439958719    1.1538289614
H        3.0100557422   -1.8279569245    7.1933035357
H       -2.1073278751   -1.6934773053   -3.2662791904
H        2.5270624549    0.3411375382    6.0726540799
H        2.2207673509   -3.9541542597    6.1680926835
H       -1.4667258782   -3.8772229713   -2.2668876948
H       -1.1686050123    0.4211825238   -2.3585198801
H        1.2575387826    0.3814218683    3.9404886370
H        0.9517891484   -3.9076051139    4.0357128421
H        0.1218367779   -3.9411262503   -0.3340488840
H        0.4191727129    0.3479091797   -0.4253552977
H       -0.4297213555   -2.5844565001    2.4500138170
H       -0.3071104054   -0.8036485730    2.4131844131
