12   
torsion grid (-165,)
C        0.6044045358    1.4054430545    0.7654264608
N        0.3245273445    0.0332575073    1.1768533236
C       -0.2644159362   -0.8654224816    0.3415285042
S       -0.8083060024   -0.5485932084   -1.1872576948
N       -0.3788354783   -2.1371066139    0.9398642263
C       -0.8861070681   -3.2112649093    0.3073147026
N       -1.3016488356   -4.1912001794   -0.1688464543
H       -0.3199133418    1.8898426449    0.4452020909
H        1.0148149798    1.9401056241    1.6245438280
H        1.3159131346    1.4361843532   -0.0665740823
H        0.8611749477   -0.3230311914    1.9591111602
H       -0.2462484604   -2.2327003255    1.9423827811
12   
torsion grid (-150,)
C        0.6055585365    1.4041096237    0.7690283282
N        0.3484798199    0.0246310434    1.1707244171
C       -0.2563250899   -0.8681121450    0.3396370459
S       -0.8352082270   -0.5460500344   -1.1728409504
N       -0.3546846639   -2.1420992537    0.9505503226
C       -0.8522669579   -3.2183633012    0.3087619373
N       -1.2487174212   -4.2002752524   -0.1789334425
H       -0.3314628874    1.8835801679    0.4798317127
H        1.0340830345    1.9325060338    1.6231515813
H        1.2936882458    1.4516873896   -0.0817346957
H        0.9356419242   -0.3502178730    1.9071486747
H       -0.4234264940   -2.1758821241    1.9642239150
12   
torsion grid (-135,)
C        0.6170961644    1.4012794673    0.7675930551
N        0.3749112586    0.0167653988    1.1593303243
C       -0.2601068675   -0.8672014045    0.3443246808
S       -0.8906482537   -0.5374509546   -1.1437045787
N       -0.3529566986   -2.1410068535    0.9784515989
C       -0.8052011685   -3.2261887856    0.3122885165
N       -1.1550515061   -4.2149928819   -0.1962436066
H       -0.3300679472    1.8861409345    0.5228532092
H        1.0816622727    1.9176498641    1.6100505310
H        1.2697059407    1.4591418867   -0.1100270331
H        0.9804074079   -0.3727916102    1.8730035689
H       -0.6143907831   -2.1258307866    1.9616285800
12   
torsion grid (-120,)
C        0.6369842943    1.3964748596    0.7610030529
N        0.3993648112    0.0098995709    1.1451058006
C       -0.2780467483   -0.8609558611    0.3563140738
S       -0.9690031369   -0.5182447738   -1.1005122488
N       -0.3720804750   -2.1343459834    1.0172717617
C       -0.7459786351   -3.2331684438    0.3191579033
N       -1.0219118654   -4.2308716782   -0.2164769955
H       -0.3152099555    1.8970439721    0.5716442970
H        1.1532136173    1.8956412170    1.5833442118
H        1.2428254688    1.4564444915   -0.1492099875
H        0.9979556437   -0.3919421107    1.8576192309
H       -0.8127531995   -2.0904609857    1.9342877462
12   
torsion grid (-105,)
C        0.6668006766    1.3872395680    0.7489772938
N        0.4216778038    0.0012177724    1.1264860538
C       -0.3203152928   -0.8459617946    0.3781104553
S       -1.0845069394   -0.4830563106   -1.0360122321
N       -0.4169054357   -2.1209845945    1.0631139768
C       -0.6755088027   -3.2347695184    0.3327501799
N       -0.8451604656   -4.2387252926   -0.2346007422
H       -0.2836301880    1.9057356354    0.6017926117
H        1.2259340975    1.8690247291    1.5532830111
H        1.2357750495    1.4446841739   -0.1848325232
H        1.0047132406   -0.4164075048    1.8426241008
H       -1.0135139241   -2.0724825888    1.8878566607
12   
torsion grid (-90,)
C        0.7058538729    1.3688153922    0.7295475963
N        0.4273536701   -0.0087836166    1.1121273859
C       -0.3915051743   -0.8200000694    0.4131981564
S       -1.2238836929   -0.4264603040   -0.9531640759
N       -0.4949740004   -2.1015347616    1.1103340384
C       -0.5836820379   -3.2242819401    0.3525777954
N       -0.6012514258   -4.2248345852   -0.2457251193
H       -0.2295037705    1.9273232390    0.6404986834
H        1.3329601417    1.8211180993    1.4998993347
H        1.2191844771    1.4071171476   -0.2367526365
H        0.9836474718   -0.4429559506    1.8395261194
H       -1.2288397122   -2.0800083760    1.8174815680
12   
torsion grid (-75,)
C        0.5974536279    1.3536592390    0.8258979232
N        0.1302754960    0.0148307142    1.1650619386
C       -0.2445186652   -0.8859471473    0.2369869547
S       -0.2865305154   -0.6275472108   -1.3940111934
N       -0.4944073560   -2.2167945736    0.7647805594
C        0.0573516851   -2.5466135681    1.9562754520
N        0.5791043271   -2.8237851503    2.9642791173
H       -0.2003388254    1.9280452084    0.3471783884
H        0.9075720893    1.8502656680    1.7468102294
H        1.4414488951    1.2956318060    0.1321766415
H        0.1669544028   -0.2710050046    2.1381093357
H       -1.4797763779   -2.4693514607    0.7321893483
12   
torsion grid (-60,)
C        0.6069335263    1.3577120908    0.8221902200
N        0.1897651388    0.0038127322    1.1679935992
C       -0.2468164152   -0.8810301335    0.2530028006
S       -0.4205408430   -0.5898057390   -1.3674929238
N       -0.4363307486   -2.2185684303    0.7590443730
C        0.0009815485   -2.5271268104    2.0009313094
N        0.4349067686   -2.7729192399    3.0575291513
H       -0.2314534057    1.9236261312    0.4070500362
H        0.9666739545    1.8448767887    1.7299954658
H        1.4053645353    1.3292598823    0.0751591472
H        0.2741887056   -0.2895831577    2.1359204181
H       -1.3690839814   -2.5788655941    0.5744110982
12   
torsion grid (-45,)
C        0.6131523895    1.3645114758    0.8164689532
N        0.2389760555   -0.0004047615    1.1692420363
C       -0.2458070705   -0.8774935206    0.2717517636
S       -0.5312268230   -0.5674809730   -1.3324358316
N       -0.4018923835   -2.2112555538    0.7687217998
C       -0.0562129799   -2.5194567674    2.0362392579
N        0.3054178537   -2.7491185626    3.1233282414
H       -0.2568152192    1.9206072746    0.4567598700
H        1.0149833183    1.8472476803    1.7088443138
H        1.3691300262    1.3594887281    0.0263155694
H        0.3747532840   -0.3004591246    2.1292232176
H       -1.2498696675   -2.6647973750    0.4412755037
12   
torsion grid (-30,)
C        0.6185839607    1.3715048333    0.8100385089
N        0.2833657433   -0.0025080059    1.1671907061
C       -0.2445363472   -0.8741611849    0.2888934527
S       -0.6247130405   -0.5532357693   -1.2955475020
N       -0.3948330384   -2.1978372622    0.7884039657
C       -0.1097390365   -2.5174477259    2.0640166820
N        0.1988387671   -2.7451240612    3.1679713832
H       -0.2745324259    1.9124735280    0.4859215864
H        1.0424118305    1.8564116741    1.6909697027
H        1.3464865149    1.3875479616   -0.0058315508
H        0.4668632428   -0.3086103431    2.1171515161
H       -1.1336073873   -2.7276251242    0.3365562441
12   
torsion grid (-15,)
C        0.6222315032    1.3770517584    0.8049085915
N        0.3108709134   -0.0018866599    1.1647371628
C       -0.2466702755   -0.8706170935    0.3014688638
S       -0.6822737609   -0.5451391142   -1.2694338058
N       -0.4195460195   -2.1786422916    0.8138588162
C       -0.1533996126   -2.5162529551    2.0848858423
N        0.1282080287   -2.7494107898    3.1951813431
H       -0.2860728437    1.9130132324    0.5163825539
H        1.0729414897    1.8597205224    1.6736527197
H        1.3211388626    1.4049715709   -0.0354781485
H        0.5266793551   -0.3116422880    2.1065675815
H       -1.0195188570   -2.7797773719    0.2590031746
12   
torsion grid (0,)
C        0.6279571500    1.3781833666    0.8012350706
N        0.3107419390    0.0020396048    1.1666033861
C       -0.2642943570   -0.8636053625    0.3113134676
S       -0.7061184583   -0.5407053431   -1.2590166558
N       -0.4922155050   -2.1507516359    0.8455576846
C       -0.1742522788   -2.5152872003    2.0947603132
N        0.1298831261   -2.7627915228    3.1961687947
H       -0.2789456153    1.9179283317    0.5154060430
H        1.0848727220    1.8610085203    1.6666517498
H        1.3234246702    1.4006760946   -0.0421782261
H        0.5387747271   -0.3093645707    2.1049424863
H       -0.9252393364   -2.8159417623    0.2142905811
12   
torsion grid (15,)
C        0.6334346618    1.3734436259    0.8009866446
N        0.3103527770   -0.0017167470    1.1649168995
C       -0.2839320530   -0.8586272042    0.3144432603
S       -0.7299164213   -0.5298407145   -1.2528533551
N       -0.5707384320   -2.1299815200    0.8664987676
C       -0.1942575884   -2.5030954829    2.0991284331
N        0.1359773759   -2.7518857416    3.1925039809
H       -0.2719851214    1.9176652075    0.5189594399
H        1.0955454833    1.8524565945    1.6657554058
H        1.3261257896    1.3941571034   -0.0447486805
H        0.5461841630   -0.3179041622    2.0997836815
H       -0.8222018508   -2.8432824388    0.1903602175
12   
torsion grid (30,)
C        0.6359046348    1.3659222742    0.8039619167
N        0.3283650811   -0.0169993295    1.1515226507
C       -0.2946765321   -0.8580951717    0.3064030185
S       -0.7848676187   -0.5019047588   -1.2398420577
N       -0.6121957010   -2.1279335473    0.8640992065
C       -0.2334112393   -2.4774804438    2.1071480993
N        0.0803722643   -2.7069764875    3.2092458298
H       -0.2797981076    1.9110285646    0.5588443053
H        1.1221488234    1.8307492040    1.6632106768
H        1.3024984287    1.4048158784   -0.0617741314
H        0.5898207647   -0.3481191472    2.0744515978
H       -0.6795720146   -2.8736185151    0.1784635829
12   
torsion grid (45,)
C        0.6391314036    1.3561439381    0.8073547061
N        0.3591805941   -0.0390827574    1.1273907972
C       -0.3049749779   -0.8584791532    0.2923609135
S       -0.8731129966   -0.4575423964   -1.2134476664
N       -0.6246673957   -2.1395679033    0.8463222852
C       -0.2850839680   -2.4457583482    2.1159726870
N       -0.0168538750   -2.6453058292    3.2355788911
H       -0.2911805242    1.8937940189    0.6040753075
H        1.1456503510    1.8052249791    1.6632758692
H        1.2776750999    1.4267339624   -0.0773801607
H        0.6611387922   -0.3925813211    2.0295505693
H       -0.5123137199   -2.9021906696    0.1846804961
12   
torsion grid (60,)
C        0.6427399691    1.3461801217    0.8096324976
N        0.3918336914   -0.0612101209    1.0976468897
C       -0.3168452985   -0.8585310153    0.2773961305
S       -0.9748238015   -0.4115424308   -1.1745899688
N       -0.6122037937   -2.1619773305    0.8203443732
C       -0.3453770121   -2.4155972784    2.1215805175
N       -0.1487455788   -2.5849689453    3.2607700124
H       -0.3022504847    1.8787877695    0.6693496226
H        1.1869984940    1.7740090126    1.6531951547
H        1.2349496827    1.4516505576   -0.1034150904
H        0.7343113481   -0.4376053914    1.9757848269
H       -0.3159984324   -2.9178064284    0.2080397294
12   
torsion grid (75,)
C        0.6487142729    1.3371535890    0.8079350738
N        0.4336151747   -0.0827804361    1.0594696748
C       -0.3299725403   -0.8584941598    0.2667548747
S       -1.0945334334   -0.3676630744   -1.1128182664
N       -0.5712334134   -2.1920812864    0.7916382018
C       -0.4166954278   -2.3939746836    2.1213896256
N       -0.3198087470   -2.5343646288    3.2772548548
H       -0.3103662280    1.8593795078    0.7416862913
H        1.2367725823    1.7443720052    1.6320900381
H        1.1835665237    1.4826079163   -0.1345829985
H        0.8131998054   -0.4789082381    1.9132065282
H       -0.0986697855   -2.9138579909    0.2517107968
12   
torsion grid (90,)
C        0.5084072592    1.4268925815    0.8057309563
N        0.2625285882    0.0396231990    1.1755114516
C       -0.0508932787   -0.9201194021    0.2823375367
S       -0.1968795752   -0.7281888338   -1.3475493179
N       -0.1638400258   -2.1990002840    0.9828622022
C       -1.1156559908   -3.0677708399    0.5563613593
N       -1.9540493980   -3.8269229465    0.2732260062
H       -0.3933752140    1.8816151108    0.3829690881
H        0.8143014587    1.9735243365    1.6995452943
H        1.2998609705    1.4775029923    0.0535388591
H        0.1628809079   -0.2017664359    2.1547349805
H        0.7420741176   -2.6598752032    1.0602804299
12   
torsion grid (105,)
C        0.5536839426    1.4204948389    0.7927958669
N        0.2800483425    0.0427948536    1.1810346072
C       -0.1293774745   -0.9020815311    0.3047179922
S       -0.3625008416   -0.6951667120   -1.3133910327
N       -0.2509711121   -2.1698604127    0.9991192091
C       -1.0761469759   -3.1168649088    0.4861264358
N       -1.8029147804   -3.9567732999    0.1326415051
H       -0.3533177584    1.9121201450    0.4258054314
H        0.9368052667    1.9539028127    1.6647751825
H        1.2993107326    1.4402763909   -0.0056229704
H        0.1649007131   -0.1695885376    2.1653268280
H        0.6558397651   -2.5637393644    1.2462197912
12   
torsion grid (120,)
C        0.5841703626    1.4119849630    0.7816536507
N        0.3097887398    0.0361552777    1.1796596675
C       -0.1762896133   -0.8908466866    0.3171689153
S       -0.4911731306   -0.6585211050   -1.2841022631
N       -0.3136595726   -2.1516020476    0.9945805477
C       -1.0402881854   -3.1465318033    0.4318058126
N       -1.6786426123   -4.0373775165    0.0351302429
H       -0.3299217431    1.9191145886    0.4554864213
H        1.0137918811    1.9364864905    1.6373573554
H        1.2957871247    1.4232600626   -0.0469423001
H        0.1901539935   -0.1545409702    2.1679865908
H        0.5516425753   -2.4920669787    1.4097642053
12   
torsion grid (135,)
C        0.6030577788    1.4054080664    0.7732549234
N        0.3370249061    0.0278450613    1.1739318283
C       -0.1981979744   -0.8853655976    0.3204715563
S       -0.5766296523   -0.6294878481   -1.2644369067
N       -0.3528993393   -2.1410717271    0.9781600762
C       -1.0047844318   -3.1674476030    0.3886300744
N       -1.5759582186   -4.0910937553   -0.0348896787
H       -0.3206865583    1.9269692277    0.5009993310
H        1.0851313101    1.9164911711    1.6090727440
H        1.2699084401    1.4156601019   -0.0912253712
H        0.2205618448   -0.1494118349    2.1652532295
H        0.4288317144   -2.4329809880    1.5603270399
12   
torsion grid (150,)
C        0.6125204459    1.4020515847    0.7665685507
N        0.3643403488    0.0199094799    1.1646860176
C       -0.2039022474   -0.8834997535    0.3194598494
S       -0.6334200808   -0.6051822683   -1.2504073422
N       -0.3698409417   -2.1376831149    0.9561926023
C       -0.9741109240   -3.1824661650    0.3552606148
N       -1.5001015103   -4.1262213638   -0.0827235596
H       -0.3214564105    1.9269486598    0.5390881905
H        1.1303455130    1.9040725252    1.5864420792
H        1.2425092766    1.4205527151   -0.1246759766
H        0.2803865804   -0.1575397377    2.1591958513
H        0.2880897697   -2.3854282870    1.6904619690
12   
torsion grid (165,)
C        0.6117471697    1.4030390012    0.7626788614
N        0.3869720577    0.0147600006    1.1531868864
C       -0.1969226721   -0.8848869554    0.3155640305
S       -0.6617218763   -0.5907306573   -1.2435558309
N       -0.3595026738   -2.1426960273    0.9319380091
C       -0.9505997502   -3.1923224471    0.3317888334
N       -1.4562520476   -4.1459688282   -0.1092938934
H       -0.3329546048    1.9208364407    0.5656541636
H        1.1457391827    1.9014610280    1.5743474545
H        1.2180434704    1.4372543289   -0.1444238323
H        0.3730283359   -0.1795675620    2.1475928487
H        0.1377832281   -2.3456640475    1.7940713154
12   
torsion grid (180,)
C        0.6066825483    1.4073191289    0.7582649606
N        0.3560836818    0.0260351179    1.1546555283
C       -0.2286123222   -0.8771608597    0.3286155430
S       -0.7325166059   -0.5710387646   -1.2184641378
N       -0.3717539412   -2.1423510811    0.9309208218
C       -0.9219645688   -3.2025153369    0.3118946879
N       -1.3834654957   -4.1707846933   -0.1456239937
H       -0.3302874150    1.9115108197    0.5058288393
H        1.0841608303    1.9191280329    1.5961614272
H        1.2631531053    1.4427851924   -0.1154103770
H        0.6263965363   -0.2486608288    2.0905862374
H       -0.0525165336   -2.2987524529    1.8821193091
