
  -OEChem-12102412493D

 16 16  0     0  0  0  0  0  0999 V2000
    0.5524   -0.5001   -1.9983 C   0  0  0  0  0  0  0  0  0  0  0  0
    0.1153   -0.7108   -0.6405 C   0  0  0  0  0  0  0  0  0  0  0  0
    0.3950   -1.6802   -2.6587 C   0  0  0  0  0  0  0  0  0  0  0  0
   -0.2763   -2.0194   -0.5901 C   0  0  0  0  0  0  0  0  0  0  0  0
   -1.0435   -2.4667    1.6999 C   0  0  0  0  0  0  0  0  0  0  0  0
   -1.6102   -3.5544    2.5948 C   0  0  0  0  0  0  0  0  0  0  0  0
   -0.7911   -2.8534    0.3984 N   0  0  0  0  0  0  0  0  0  0  0  0
   -0.8266   -1.3285    2.1000 O   0  0  0  0  0  0  0  0  0  0  0  0
   -0.1183   -2.6344   -1.7992 O   0  0  0  0  0  0  0  0  0  0  0  0
    0.9346    0.4202   -2.4203 H   0  0  0  0  0  0  0  0  0  0  0  0
    0.0894   -0.0129    0.1810 H   0  0  0  0  0  0  0  0  0  0  0  0
    0.5782   -2.0155   -3.6684 H   0  0  0  0  0  0  0  0  0  0  0  0
   -0.9498   -3.6755    3.4575 H   0  0  0  0  0  0  0  0  0  0  0  0
   -1.7282   -4.5214    2.0978 H   0  0  0  0  0  0  0  0  0  0  0  0
   -2.5836   -3.2262    2.9695 H   0  0  0  0  0  0  0  0  0  0  0  0
   -0.9873   -3.8042    0.1132 H   0  0  0  0  0  0  0  0  0  0  0  0
  1  2  1  0  0  0  0
  1  3  2  0  0  0  0
  1 10  1  0  0  0  0
  2  4  2  0  0  0  0
  2 11  1  0  0  0  0
  3  9  1  0  0  0  0
  3 12  1  0  0  0  0
  4  7  1  0  0  0  0
  4  9  1  0  0  0  0
  5  6  1  0  0  0  0
  5  7  1  0  0  0  0
  5  8  2  0  0  0  0
  6 13  1  0  0  0  0
  6 14  1  0  0  0  0
  6 15  1  0  0  0  0
  7 16  1  0  0  0  0
M  END
$$$$
