21
0 1 C8H10N2O
C                    -5.365679451324     1.069862200011     0.544405692518
C                    -4.095540653080     0.489051501987     0.470162140445
C                    -5.567795353123     2.158475058925     1.387991177486
C                    -3.084035591977     1.042415487336     1.256338306391
C                    -4.476056390420     2.649018449056     2.132297556623
C                    -4.015513045924     3.974253553901     4.195826624389
C                    -3.174413407946     2.861061974624     4.787397738817
C                    -5.589216123813     4.816846646386     2.527270653488
N                    -3.255899453954     2.102712830431     2.055898485850
N                    -4.643943014692     3.780201698947     2.960235324388
O                    -4.188673254481     5.024556686858     4.809392179937
H                    -6.193305539005     0.672970438873    -0.037852061755
H                    -3.893013855761    -0.361240494484    -0.173667599542
H                    -6.550113618713     2.607729465986     1.483452719542
H                    -2.077865616135     0.626009041238     1.235037283212
H                    -2.186265615076     2.845005849034     4.324573196034
H                    -3.617468133560     1.874590345276     4.635426711835
H                    -3.077804662615     3.072050431961     5.853284039940
H                    -6.612135516184     4.595476753488     2.854314563013
H                    -5.566407824018     4.898407443966     1.438754623420
H                    -5.285923650751     5.761446070585     2.974983948342
