19
0 1 C6H9N3O
C                    -2.085829002891    -2.251021765902     4.356956147815
C                    -1.834818656148    -1.933257190438     5.670312510181
C                    -0.180172304025    -1.232796720443     4.358470171441
C                     2.332854481192    -0.244592088649     1.842933551631
C                     2.351224688140    -0.442864782746     0.336974031010
C                     1.112445783375    -0.602195770418     3.931613332699
N                    -1.051077811352    -1.811068569087     3.550983896343
N                    -0.609886292238    -1.280691089252     5.657361056703
N                     1.241271821562    -0.734228484915     2.494129740022
O                     3.247253550307     0.325560557010     2.442402207294
H                    -2.943300076699    -2.766894995820     3.945784322685
H                    -2.389241324007    -2.101145153527     6.582285518748
H                     2.405253459095     0.537160171691    -0.144961048223
H                     3.257070803585    -0.992060126991     0.066720731804
H                     1.478526720015    -0.980815423479    -0.043320256252
H                     1.143298867965     0.457437640489     4.216969492375
H                     1.964618936038    -1.080550955237     4.431749620846
H                    -0.124916291742    -0.908131155558     6.463360984143
H                     0.483521282630    -1.206258165822     2.012847041038
