
  -OEChem-12102412493D

 16 16  0     0  0  0  0  0  0999 V2000
   -0.0537    0.9554   -2.0112 C   0  0  0  0  0  0  0  0  0  0  0  0
   -0.3060    0.0028   -0.9709 C   0  0  0  0  0  0  0  0  0  0  0  0
   -0.8022    0.7534   -3.1380 C   0  0  0  0  0  0  0  0  0  0  0  0
   -1.2581   -0.9168   -1.3401 C   0  0  0  0  0  0  0  0  0  0  0  0
   -1.4392   -2.3747    0.6572 C   0  0  0  0  0  0  0  0  0  0  0  0
   -2.1753   -3.5928    1.1894 C   0  0  0  0  0  0  0  0  0  0  0  0
   -1.7886   -2.0016   -0.6269 N   0  0  0  0  0  0  0  0  0  0  0  0
   -0.6024   -1.7751    1.3227 O   0  0  0  0  0  0  0  0  0  0  0  0
   -1.8522   -0.6245   -2.9608 S   0  0  0  0  0  0  0  0  0  0  0  0
    0.6643    1.7639   -1.9180 H   0  0  0  0  0  0  0  0  0  0  0  0
    0.1780   -0.0140   -0.0049 H   0  0  0  0  0  0  0  0  0  0  0  0
   -0.8116    1.3170   -4.0615 H   0  0  0  0  0  0  0  0  0  0  0  0
   -1.4383   -4.3508    1.4677 H   0  0  0  0  0  0  0  0  0  0  0  0
   -2.8853   -4.0307    0.4819 H   0  0  0  0  0  0  0  0  0  0  0  0
   -2.7113   -3.3062    2.0982 H   0  0  0  0  0  0  0  0  0  0  0  0
   -2.4897   -2.5595   -1.0958 H   0  0  0  0  0  0  0  0  0  0  0  0
  1  2  1  0  0  0  0
  1  3  2  0  0  0  0
  1 10  1  0  0  0  0
  2  4  2  0  0  0  0
  2 11  1  0  0  0  0
  3  9  1  0  0  0  0
  3 12  1  0  0  0  0
  4  7  1  0  0  0  0
  4  9  1  0  0  0  0
  5  6  1  0  0  0  0
  5  7  1  0  0  0  0
  5  8  2  0  0  0  0
  6 13  1  0  0  0  0
  6 14  1  0  0  0  0
  6 15  1  0  0  0  0
  7 16  1  0  0  0  0
M  END
$$$$
