
  -OEChem-12122420533D

 21 21  0     0  0  0  0  0  0999 V2000
   -3.6446    0.2661   -4.9075 C   0  0  0  0  0  0  0  0  0  0  0  0
   -4.9287    0.7904   -4.7235 C   0  0  0  0  0  0  0  0  0  0  0  0
   -2.7809    0.1472   -3.8224 C   0  0  0  0  0  0  0  0  0  0  0  0
   -5.2838    1.1845   -3.4352 C   0  0  0  0  0  0  0  0  0  0  0  0
   -3.2452    0.5651   -2.5591 C   0  0  0  0  0  0  0  0  0  0  0  0
   -1.4315   -0.4220   -1.2080 C   0  0  0  0  0  0  0  0  0  0  0  0
   -0.7639   -0.4704    0.1592 C   0  0  0  0  0  0  0  0  0  0  0  0
   -2.8911    1.3554   -0.2584 C   0  0  0  0  0  0  0  0  0  0  0  0
   -4.4695    1.0764   -2.3771 N   0  0  0  0  0  0  0  0  0  0  0  0
   -2.4452    0.5164   -1.3818 N   0  0  0  0  0  0  0  0  0  0  0  0
   -1.0689   -1.1907   -2.0951 O   0  0  0  0  0  0  0  0  0  0  0  0
   -3.3103   -0.0458   -5.8937 H   0  0  0  0  0  0  0  0  0  0  0  0
   -5.6278    0.8958   -5.5477 H   0  0  0  0  0  0  0  0  0  0  0  0
   -1.7878   -0.2596   -3.9367 H   0  0  0  0  0  0  0  0  0  0  0  0
   -6.2675    1.6062   -3.2336 H   0  0  0  0  0  0  0  0  0  0  0  0
   -1.4853   -0.5891    0.9726 H   0  0  0  0  0  0  0  0  0  0  0  0
   -0.1855    0.4389    0.3534 H   0  0  0  0  0  0  0  0  0  0  0  0
   -0.0839   -1.3218    0.1517 H   0  0  0  0  0  0  0  0  0  0  0  0
   -3.6537    0.8535    0.3460 H   0  0  0  0  0  0  0  0  0  0  0  0
   -3.3283    2.2707   -0.6521 H   0  0  0  0  0  0  0  0  0  0  0  0
   -2.0400    1.6144    0.3685 H   0  0  0  0  0  0  0  0  0  0  0  0
  1  2  1  0  0  0  0
  1  3  2  0  0  0  0
  1 12  1  0  0  0  0
  2  4  2  0  0  0  0
  2 13  1  0  0  0  0
  3  5  1  0  0  0  0
  3 14  1  0  0  0  0
  4  9  1  0  0  0  0
  4 15  1  0  0  0  0
  5  9  2  0  0  0  0
  5 10  1  0  0  0  0
  6  7  1  0  0  0  0
  6 10  1  0  0  0  0
  6 11  2  0  0  0  0
  7 16  1  0  0  0  0
  7 17  1  0  0  0  0
  7 18  1  0  0  0  0
  8 10  1  0  0  0  0
  8 19  1  0  0  0  0
  8 20  1  0  0  0  0
  8 21  1  0  0  0  0
M  END
$$$$
