
  -OEChem-12122420533D

 18 18  0     0  0  0  0  0  0999 V2000
    0.3571   -0.2303    1.1771 C   0  0  0  0  0  0  0  0  0  0  0  0
    1.5679    0.0494    1.8166 C   0  0  0  0  0  0  0  0  0  0  0  0
   -0.5911   -0.9810    1.8736 C   0  0  0  0  0  0  0  0  0  0  0  0
    1.7699   -0.4471    3.0978 C   0  0  0  0  0  0  0  0  0  0  0  0
    0.7540   -1.2047    3.7252 C   0  0  0  0  0  0  0  0  0  0  0  0
    0.3890   -2.8251    5.6090 C   0  0  0  0  0  0  0  0  0  0  0  0
    0.7816   -2.9932    7.0697 C   0  0  0  0  0  0  0  0  0  0  0  0
   -0.4071   -1.4429    3.1144 N   0  0  0  0  0  0  0  0  0  0  0  0
    0.9478   -1.6805    5.0270 N   0  0  0  0  0  0  0  0  0  0  0  0
   -0.3468   -3.6003    5.0282 O   0  0  0  0  0  0  0  0  0  0  0  0
    3.2905   -0.1224    3.9256 Cl  0  0  0  0  0  0  0  0  0  0  0  0
    0.1571    0.1305    0.1730 H   0  0  0  0  0  0  0  0  0  0  0  0
    2.3450    0.6319    1.3313 H   0  0  0  0  0  0  0  0  0  0  0  0
   -1.5535   -1.2148    1.4217 H   0  0  0  0  0  0  0  0  0  0  0  0
    0.1225   -2.3785    7.6923 H   0  0  0  0  0  0  0  0  0  0  0  0
    1.8146   -2.6904    7.2699 H   0  0  0  0  0  0  0  0  0  0  0  0
    0.6478   -4.0383    7.3494 H   0  0  0  0  0  0  0  0  0  0  0  0
    1.7042   -1.2443    5.5385 H   0  0  0  0  0  0  0  0  0  0  0  0
  1  2  1  0  0  0  0
  1  3  2  0  0  0  0
  1 12  1  0  0  0  0
  2  4  2  0  0  0  0
  2 13  1  0  0  0  0
  3  8  1  0  0  0  0
  3 14  1  0  0  0  0
  4  5  1  0  0  0  0
  4 11  1  0  0  0  0
  5  8  2  0  0  0  0
  5  9  1  0  0  0  0
  6  7  1  0  0  0  0
  6  9  1  0  0  0  0
  6 10  2  0  0  0  0
  7 15  1  0  0  0  0
  7 16  1  0  0  0  0
  7 17  1  0  0  0  0
  9 18  1  0  0  0  0
M  END
$$$$
