
  -OEChem-12102412493D

 20 20  0     0  0  0  0  0  0999 V2000
   -4.9799    0.9899   -4.5787 C   0  0  0  0  0  0  0  0  0  0  0  0
   -4.9366    1.9661   -3.5824 C   0  0  0  0  0  0  0  0  0  0  0  0
   -4.0959   -0.0782   -4.4180 C   0  0  0  0  0  0  0  0  0  0  0  0
   -3.3133    0.8104   -2.4701 C   0  0  0  0  0  0  0  0  0  0  0  0
   -1.7794   -0.3733   -0.8824 C   0  0  0  0  0  0  0  0  0  0  0  0
   -2.1357   -1.7513   -1.4007 C   0  0  0  0  0  0  0  0  0  0  0  0
   -2.2448    2.0325   -0.6416 C   0  0  0  0  0  0  0  0  0  0  0  0
   -4.1195    1.8888   -2.5291 N   0  0  0  0  0  0  0  0  0  0  0  0
   -3.2555   -0.1731   -3.3849 N   0  0  0  0  0  0  0  0  0  0  0  0
   -2.4449    0.7702   -1.3758 N   0  0  0  0  0  0  0  0  0  0  0  0
   -0.9462   -0.2475    0.0078 O   0  0  0  0  0  0  0  0  0  0  0  0
   -5.6503    1.0613   -5.4284 H   0  0  0  0  0  0  0  0  0  0  0  0
   -5.5815    2.8431   -3.6241 H   0  0  0  0  0  0  0  0  0  0  0  0
   -4.0455   -0.8836   -5.1500 H   0  0  0  0  0  0  0  0  0  0  0  0
   -1.6739   -1.9280   -2.3733 H   0  0  0  0  0  0  0  0  0  0  0  0
   -3.2110   -1.8860   -1.5292 H   0  0  0  0  0  0  0  0  0  0  0  0
   -1.7456   -2.4637   -0.6724 H   0  0  0  0  0  0  0  0  0  0  0  0
   -3.1478    2.2996   -0.0878 H   0  0  0  0  0  0  0  0  0  0  0  0
   -2.0205    2.8366   -1.3442 H   0  0  0  0  0  0  0  0  0  0  0  0
   -1.4136    1.8859    0.0427 H   0  0  0  0  0  0  0  0  0  0  0  0
  1  2  1  0  0  0  0
  1  3  2  0  0  0  0
  1 12  1  0  0  0  0
  2  8  2  0  0  0  0
  2 13  1  0  0  0  0
  3  9  1  0  0  0  0
  3 14  1  0  0  0  0
  4  8  1  0  0  0  0
  4  9  2  0  0  0  0
  4 10  1  0  0  0  0
  5  6  1  0  0  0  0
  5 10  1  0  0  0  0
  5 11  2  0  0  0  0
  6 15  1  0  0  0  0
  6 16  1  0  0  0  0
  6 17  1  0  0  0  0
  7 10  1  0  0  0  0
  7 18  1  0  0  0  0
  7 19  1  0  0  0  0
  7 20  1  0  0  0  0
M  END
$$$$
