
  -OEChem-12122420533D

 17 17  0     0  0  0  0  0  0999 V2000
   -8.6378   -3.9302    9.6384 C   0  0  0  0  0  0  0  0  0  0  0  0
   -9.5571   -4.9079    9.2498 C   0  0  0  0  0  0  0  0  0  0  0  0
   -7.7161   -3.5366    8.6672 C   0  0  0  0  0  0  0  0  0  0  0  0
   -8.6211   -4.9773    7.1757 C   0  0  0  0  0  0  0  0  0  0  0  0
   -7.9057   -5.3797    4.7745 C   0  0  0  0  0  0  0  0  0  0  0  0
   -8.3512   -6.2651    3.6173 C   0  0  0  0  0  0  0  0  0  0  0  0
   -9.5621   -5.4402    8.0254 N   0  0  0  0  0  0  0  0  0  0  0  0
   -7.6941   -4.0499    7.4319 N   0  0  0  0  0  0  0  0  0  0  0  0
   -8.6862   -5.5769    5.9184 N   0  0  0  0  0  0  0  0  0  0  0  0
   -6.9785   -4.5966    4.6957 O   0  0  0  0  0  0  0  0  0  0  0  0
   -8.6408   -3.5030   10.6356 H   0  0  0  0  0  0  0  0  0  0  0  0
  -10.3148   -5.2785    9.9390 H   0  0  0  0  0  0  0  0  0  0  0  0
   -6.9619   -2.7801    8.8802 H   0  0  0  0  0  0  0  0  0  0  0  0
   -9.3843   -6.0403    3.3303 H   0  0  0  0  0  0  0  0  0  0  0  0
   -8.3003   -7.3246    3.8908 H   0  0  0  0  0  0  0  0  0  0  0  0
   -7.6955   -6.0818    2.7667 H   0  0  0  0  0  0  0  0  0  0  0  0
   -9.4331   -6.2596    5.8608 H   0  0  0  0  0  0  0  0  0  0  0  0
  1  2  1  0  0  0  0
  1  3  2  0  0  0  0
  1 11  1  0  0  0  0
  2  7  2  0  0  0  0
  2 12  1  0  0  0  0
  3  8  1  0  0  0  0
  3 13  1  0  0  0  0
  4  7  1  0  0  0  0
  4  8  2  0  0  0  0
  4  9  1  0  0  0  0
  5  6  1  0  0  0  0
  5  9  1  0  0  0  0
  5 10  2  0  0  0  0
  6 14  1  0  0  0  0
  6 15  1  0  0  0  0
  6 16  1  0  0  0  0
  9 17  1  0  0  0  0
M  END
$$$$
