21
0 1 C8H10N2O
C                    -8.904876787859    -1.166117507883    -0.332913230931
C                    -7.594529835123    -1.062214028244    -0.810472983025
C                    -9.956856232509    -0.741856383903    -1.140786196983
C                    -7.406972513866    -0.518769755465    -2.082667073805
C                    -9.663950608491    -0.255621205365    -2.427199628670
C                   -11.836968637231    -0.512431202043    -3.614808425398
C                   -12.051546731134    -1.894471739460    -3.017448069952
C                   -10.410975021702     1.407314332047    -4.088712192688
N                    -8.409748606375    -0.128242313389    -2.879933725148
N                   -10.685201536867     0.197950060043    -3.295977150388
O                   -12.660426607694    -0.042154230143    -4.396421252835
H                    -9.105050699255    -1.548645182270     0.664587028290
H                    -6.743467330173    -1.372284594611    -0.211889381538
H                   -10.978539964342    -0.759492346888    -0.779412302216
H                    -6.403829886761    -0.392214877074    -2.487143912910
H                   -12.617230575792    -1.821003500794    -2.083511878763
H                   -11.126439951665    -2.437254366097    -2.817380681928
H                   -12.662063934901    -2.451441649449    -3.729456186828
H                    -9.977197164183     1.151749394094    -5.059587593776
H                    -9.707532024280     2.034562949734    -3.542076727324
H                   -11.350406612389     1.935764061638    -4.246548699249
