19
0 1 C6H9N3O
C                     7.261797873846    -1.702222971184    -0.182546494623
C                     6.075900425634    -2.077848216788     0.413114953264
C                     7.343205998508    -3.840978722904    -0.000912788354
C                     7.906260266355    -5.890029761484    -1.260344860514
C                     7.347081898778    -5.239301402790    -2.508379836709
C                     5.103828195032    -4.317495101584     1.086681018130
N                     8.043522273005    -2.806831936408    -0.434384321062
N                     6.128798847608    -3.453443068857     0.520433425114
N                     7.713828503307    -5.194165846451    -0.065647724466
O                     8.480679297439    -6.970016158722    -1.257841317839
H                     7.592739131192    -0.704274440656    -0.439442895355
H                     5.225618446487    -1.509544003001     0.764094781010
H                     7.986846764022    -4.401968696911    -2.801395275581
H                     6.342561098422    -4.838920712801    -2.342587981593
H                     7.328324429364    -5.982634667371    -3.305280763098
H                     5.372845399775    -5.354393583117     0.882649103238
H                     5.027734316632    -4.173814212411     2.168875190317
H                     4.135295948299    -4.102715195368     0.627391775998
H                     8.245299078048    -5.583124288682     0.708586494075
