19
0 1 C8ClH8NO
C                     1.704276194636    -0.976055702015    -0.368747539981
C                     0.660522846768    -0.360564460014     0.326734293230
C                     2.759481403019    -1.586833075758     0.309514824461
C                     0.675341877750    -0.357627669373     1.723395234963
C                     2.790592281579    -1.593233389452     1.716463283384
C                     1.728074203985    -0.966888680526     2.400625227585
C                     4.947812835966    -2.848673115897     2.014144461848
C                     5.854301653008    -3.366186133696     3.119610683570
N                     3.820712675098    -2.188887762240     2.464760949882
O                     5.220657896980    -3.016230798322     0.830186151774
Cl                    1.713121508132    -0.943625039617     4.168115910496
H                     1.703109914523    -0.984445065842    -1.455196392193
H                    -0.159094916427     0.113787414538    -0.204916291723
H                     3.567802963176    -2.063420819276    -0.227236679546
H                    -0.121754838916     0.112670866498     2.290286847228
H                     5.975166929157    -4.445068106345     2.991887217853
H                     5.487716008312    -3.165547255453     4.130058067599
H                     6.840318862009    -2.908782757432     3.001669751814
H                     3.711580072642    -2.118664549356     3.468498345712
