
  -OEChem-12122420533D

 10  9  0     0  0  0  0  0  0999 V2000
   -0.8983    0.4548    0.4451 C   0  0  0  0  0  0  0  0  0  0  0  0
   -2.1415   -0.1971   -0.1253 C   0  0  0  0  0  0  0  0  0  0  0  0
   -0.9577    0.3957    1.8726 O   0  0  0  0  0  0  0  0  0  0  0  0
   -2.0066   -1.6172   -0.0265 O   0  0  0  0  0  0  0  0  0  0  0  0
   -0.8557    1.4998    0.1017 H   0  0  0  0  0  0  0  0  0  0  0  0
   -0.0165   -0.0734    0.0571 H   0  0  0  0  0  0  0  0  0  0  0  0
   -2.2529    0.1097   -1.1766 H   0  0  0  0  0  0  0  0  0  0  0  0
   -3.0147    0.1639    0.4352 H   0  0  0  0  0  0  0  0  0  0  0  0
   -0.0654    0.5295    2.2242 H   0  0  0  0  0  0  0  0  0  0  0  0
   -2.8854   -2.0165   -0.1041 H   0  0  0  0  0  0  0  0  0  0  0  0
  1  2  1  0  0  0  0
  1  3  1  0  0  0  0
  1  5  1  0  0  0  0
  1  6  1  0  0  0  0
  2  4  1  0  0  0  0
  2  7  1  0  0  0  0
  2  8  1  0  0  0  0
  3  9  1  0  0  0  0
  4 10  1  0  0  0  0
M  END
$$$$
