19
0 1 C6H9N3O
C                    -4.432951091244    16.872342399497     0.096613444425
C                    -4.070439851773    15.566133115122     0.327620178215
C                    -2.699014566867    16.956929857884     1.360547264158
C                    -0.770818432564    16.580207215164     2.799907742567
C                     0.314370189414    17.216527655359     3.647136400959
C                    -1.529495169201    18.897047386350     2.281192328309
N                    -3.571587485126    17.737942931746     0.746129352294
N                    -2.951476145068    15.634413586171     1.143348065570
N                    -1.631478804503    17.435870889501     2.144730601646
O                    -0.858305395766    15.349194435767     2.707621136772
H                    -5.258934088977    17.244523780982    -0.494746332500
H                    -4.484858073255    14.622766954288     0.003003742142
H                    -0.088108725258    17.941301008254     4.360412124801
H                     1.046256530703    17.737862115802     3.021176483241
H                     0.820179246675    16.416736114332     4.187152854270
H                    -1.882047679866    19.224744924981     3.264406993635
H                    -2.158519149970    19.348293378302     1.517214469004
H                    -0.497600793751    19.220842618768     2.137959461730
H                    -2.381900196733    14.895521002114     1.544448870491
