21
0 1 C8H10N2O
C                     1.912516761721    -1.152775817963    -0.112984721502
C                     0.852535480299    -0.494792042828     0.514973088899
C                     2.925216408627    -1.727966188333     0.661613655628
C                     0.778000049951    -0.435266829896     1.909966307486
C                     2.876183578551    -1.666812316116     2.056451211447
C                     1.776202887171    -1.039224654591     2.686238980143
C                     0.923239926938    -0.441991502762     4.973055483224
C                     1.100607639372    -0.837723355080     6.431459562457
N                     3.870480310065    -2.269482049395     2.890216273364
N                     1.750701001288    -1.105683967561     4.096279744307
O                     0.100497271769     0.404922496277     4.634292023601
H                     1.964364137211    -1.205652088579    -1.196999506715
H                     0.070943206105    -0.028569981265    -0.078631769968
H                     3.769982784290    -2.217734254473     0.180851450057
H                    -0.043499176358     0.064476242540     2.405373767534
H                     1.243390625946     0.069650045172     7.023428390601
H                     1.937593395505    -1.519089380904     6.609192973386
H                     0.178929150338    -1.314288248726     6.778186054287
H                     4.418968176130    -1.564388744048     3.381739530352
H                     4.512421607091    -2.836934626546     2.343188486600
H                     2.367581158839    -1.816836378429     4.475325506732
