
  -OEChem-12122420533D

 11 10  0     0  0  0  0  0  0999 V2000
   -1.7333   -0.5077   -1.2067 C   0  0  0  0  0  0  0  0  0  0  0  0
   -0.9629   -0.5221    0.0918 C   0  0  0  0  0  0  0  0  0  0  0  0
   -2.5812    0.8778   -2.9266 C   0  0  0  0  0  0  0  0  0  0  0  0
   -2.1934   -1.4828   -1.7686 O   0  0  0  0  0  0  0  0  0  0  0  0
   -1.8560    0.7563   -1.6853 O   0  0  0  0  0  0  0  0  0  0  0  0
    0.0278   -0.0825   -0.0556 H   0  0  0  0  0  0  0  0  0  0  0  0
   -0.8671   -1.5482    0.4454 H   0  0  0  0  0  0  0  0  0  0  0  0
   -1.4823    0.0837    0.8401 H   0  0  0  0  0  0  0  0  0  0  0  0
   -2.5843    1.9428   -3.1584 H   0  0  0  0  0  0  0  0  0  0  0  0
   -3.6018    0.5054   -2.8104 H   0  0  0  0  0  0  0  0  0  0  0  0
   -2.0819    0.3125   -3.7171 H   0  0  0  0  0  0  0  0  0  0  0  0
  1  2  1  0  0  0  0
  1  4  2  0  0  0  0
  1  5  1  0  0  0  0
  2  6  1  0  0  0  0
  2  7  1  0  0  0  0
  2  8  1  0  0  0  0
  3  5  1  0  0  0  0
  3  9  1  0  0  0  0
  3 10  1  0  0  0  0
  3 11  1  0  0  0  0
M  END
$$$$
