
  -OEChem-12122420533D

 15 14  0     0  0  0  0  0  0999 V2000
    0.9079   -0.3811    1.7736 C   0  0  0  0  0  0  0  0  0  0  0  0
    0.3236   -0.8142    0.4345 C   0  0  0  0  0  0  0  0  0  0  0  0
    2.7116    0.7077    3.0161 C   0  0  0  0  0  0  0  0  0  0  0  0
    2.8909    0.5707    0.5645 C   0  0  0  0  0  0  0  0  0  0  0  0
    2.1425    0.2266    1.7630 N   0  0  0  0  0  0  0  0  0  0  0  0
    0.2888   -0.5831    2.8205 O   0  0  0  0  0  0  0  0  0  0  0  0
    0.9577   -1.5529   -0.0665 H   0  0  0  0  0  0  0  0  0  0  0  0
   -0.6482   -1.2641    0.6360 H   0  0  0  0  0  0  0  0  0  0  0  0
    0.1886    0.0327   -0.2458 H   0  0  0  0  0  0  0  0  0  0  0  0
    3.7221    0.3037    3.1519 H   0  0  0  0  0  0  0  0  0  0  0  0
    2.0757    0.3831    3.8379 H   0  0  0  0  0  0  0  0  0  0  0  0
    2.7728    1.8041    3.0180 H   0  0  0  0  0  0  0  0  0  0  0  0
    2.8755    1.6548    0.3835 H   0  0  0  0  0  0  0  0  0  0  0  0
    2.4886    0.0703   -0.3141 H   0  0  0  0  0  0  0  0  0  0  0  0
    3.9372    0.2625    0.6779 H   0  0  0  0  0  0  0  0  0  0  0  0
  1  2  1  0  0  0  0
  1  5  1  0  0  0  0
  1  6  2  0  0  0  0
  2  7  1  0  0  0  0
  2  8  1  0  0  0  0
  2  9  1  0  0  0  0
  3  5  1  0  0  0  0
  3 10  1  0  0  0  0
  3 11  1  0  0  0  0
  3 12  1  0  0  0  0
  4  5  1  0  0  0  0
  4 13  1  0  0  0  0
  4 14  1  0  0  0  0
  4 15  1  0  0  0  0
M  END
$$$$
