
  -OEChem-12122420533D

 22 22  0     0  0  0  0  0  0999 V2000
    1.8824   -0.9267    0.0773 C   0  0  0  0  0  0  0  0  0  0  0  0
    3.0299   -0.8134    0.8694 C   0  0  0  0  0  0  0  0  0  0  0  0
    0.6286   -1.0641    0.6835 C   0  0  0  0  0  0  0  0  0  0  0  0
    2.9247   -0.8371    2.2632 C   0  0  0  0  0  0  0  0  0  0  0  0
    0.5219   -1.0819    2.0769 C   0  0  0  0  0  0  0  0  0  0  0  0
    1.6694   -0.9614    2.8704 C   0  0  0  0  0  0  0  0  0  0  0  0
    1.5705    0.1377    5.0820 C   0  0  0  0  0  0  0  0  0  0  0  0
    1.6440    1.4663    4.3455 C   0  0  0  0  0  0  0  0  0  0  0  0
    1.4913   -2.3200    4.9240 C   0  0  0  0  0  0  0  0  0  0  0  0
    1.5589   -0.9994    4.2978 N   0  0  0  0  0  0  0  0  0  0  0  0
    1.5219    0.0827    6.3106 O   0  0  0  0  0  0  0  0  0  0  0  0
    1.9645   -0.9093   -1.0062 H   0  0  0  0  0  0  0  0  0  0  0  0
    4.0061   -0.7097    0.4030 H   0  0  0  0  0  0  0  0  0  0  0  0
   -0.2656   -1.1517    0.0719 H   0  0  0  0  0  0  0  0  0  0  0  0
    3.8100   -0.7555    2.8887 H   0  0  0  0  0  0  0  0  0  0  0  0
   -0.4476   -1.1787    2.5589 H   0  0  0  0  0  0  0  0  0  0  0  0
    0.9186    1.5261    3.5301 H   0  0  0  0  0  0  0  0  0  0  0  0
    2.6365    1.6114    3.9080 H   0  0  0  0  0  0  0  0  0  0  0  0
    1.4567    2.2591    5.0697 H   0  0  0  0  0  0  0  0  0  0  0  0
    2.4035   -2.8910    4.7159 H   0  0  0  0  0  0  0  0  0  0  0  0
    0.6334   -2.8807    4.5375 H   0  0  0  0  0  0  0  0  0  0  0  0
    1.3856   -2.1814    5.9995 H   0  0  0  0  0  0  0  0  0  0  0  0
  1  2  1  0  0  0  0
  1  3  2  0  0  0  0
  1 12  1  0  0  0  0
  2  4  2  0  0  0  0
  2 13  1  0  0  0  0
  3  5  1  0  0  0  0
  3 14  1  0  0  0  0
  4  6  1  0  0  0  0
  4 15  1  0  0  0  0
  5  6  2  0  0  0  0
  5 16  1  0  0  0  0
  6 10  1  0  0  0  0
  7  8  1  0  0  0  0
  7 10  1  0  0  0  0
  7 11  2  0  0  0  0
  8 17  1  0  0  0  0
  8 18  1  0  0  0  0
  8 19  1  0  0  0  0
  9 10  1  0  0  0  0
  9 20  1  0  0  0  0
  9 21  1  0  0  0  0
  9 22  1  0  0  0  0
M  END
$$$$
