19
0 1 C6H9N3O
C                     2.016817330647    -0.618156173142    -0.966996495091
C                     0.950187302705    -0.859308779258    -0.131209621680
C                     1.488977070325    -2.675634813894    -1.248144896885
C                     1.561192407860    -5.126878551067    -0.984992436165
C                     1.817169786531    -6.400552898674    -1.770323082764
C                    -0.505664729469    -2.889722593361     0.303039764485
N                     2.348937790615    -1.762855683224    -1.662923085872
N                     0.601486794667    -2.186565431009    -0.330857425093
N                     1.438390538916    -3.983173804181    -1.763528209249
O                     1.461487647757    -5.109010072907     0.235310563795
H                     2.564636967606     0.304956878267    -1.103927078055
H                     0.420342863074    -0.236054957377     0.575248627489
H                     2.893966869763    -6.600859273710    -1.771357830590
H                     1.473634206822    -6.342022485981    -2.806799148588
H                     1.322024988883    -7.232026438058    -1.266477341747
H                    -0.934240849092    -3.602287526374    -0.404428890358
H                    -0.166150669015    -3.437145733711     1.183805520738
H                    -1.271734484497    -2.161580725890     0.577381211648
H                     1.763401571851    -4.042141020911    -2.721809065721
