
  -OEChem-12122420533D

 17 17  0     0  0  0  0  0  0999 V2000
   -7.7710   -5.3682    5.2010 C   0  0  0  0  0  0  0  0  0  0  0  0
   -7.3648   -5.7251    3.9110 C   0  0  0  0  0  0  0  0  0  0  0  0
   -8.1906   -6.3700    6.0758 C   0  0  0  0  0  0  0  0  0  0  0  0
   -7.3945   -7.0753    3.5562 C   0  0  0  0  0  0  0  0  0  0  0  0
   -8.1753   -7.6825    5.6018 C   0  0  0  0  0  0  0  0  0  0  0  0
   -9.8091   -9.2181    6.3469 C   0  0  0  0  0  0  0  0  0  0  0  0
   -9.9789  -10.4246    7.2333 C   0  0  0  0  0  0  0  0  0  0  0  0
   -7.7916   -8.0492    4.3901 N   0  0  0  0  0  0  0  0  0  0  0  0
  -10.6453   -8.7347    5.6211 O   0  0  0  0  0  0  0  0  0  0  0  0
   -8.5333   -8.7118    6.4759 O   0  0  0  0  0  0  0  0  0  0  0  0
   -7.7643   -4.3292    5.5195 H   0  0  0  0  0  0  0  0  0  0  0  0
   -7.0323   -4.9786    3.1960 H   0  0  0  0  0  0  0  0  0  0  0  0
   -8.5223   -6.1573    7.0868 H   0  0  0  0  0  0  0  0  0  0  0  0
   -7.0852   -7.3956    2.5630 H   0  0  0  0  0  0  0  0  0  0  0  0
   -9.3615  -11.2414    6.8467 H   0  0  0  0  0  0  0  0  0  0  0  0
  -11.0257  -10.7267    7.2412 H   0  0  0  0  0  0  0  0  0  0  0  0
   -9.6364  -10.2048    8.2477 H   0  0  0  0  0  0  0  0  0  0  0  0
  1  2  1  0  0  0  0
  1  3  2  0  0  0  0
  1 11  1  0  0  0  0
  2  4  2  0  0  0  0
  2 12  1  0  0  0  0
  3  5  1  0  0  0  0
  3 13  1  0  0  0  0
  4  8  1  0  0  0  0
  4 14  1  0  0  0  0
  5  8  2  0  0  0  0
  5 10  1  0  0  0  0
  6  7  1  0  0  0  0
  6  9  2  0  0  0  0
  6 10  1  0  0  0  0
  7 15  1  0  0  0  0
  7 16  1  0  0  0  0
  7 17  1  0  0  0  0
M  END
$$$$
