10
0 1 C2H6O2
C                    -0.898293825296     0.454833485351     0.445147743193
C                    -2.141459730848    -0.197099180131    -0.125289377551
O                    -0.957733136891     0.395670869936     1.872640221420
O                    -2.006592462747    -1.617247149642    -0.026510539980
H                    -0.855746358276     1.499803512169     0.101742071197
H                    -0.016545937307    -0.073351697970     0.057144672207
H                    -2.252931804585     0.109689074627    -1.176552956562
H                    -3.014681266906     0.163872079572     0.435236545084
H                    -0.065380881566     0.529457505255     2.224173092268
H                    -2.885407608300    -2.016531649038    -0.104115595032
