17
0 1 C6H7N3O
C                    -8.637826333721    -3.930230148139     9.638395154000
C                    -9.557140474853    -4.907940015780     9.249806225632
C                    -7.716114194308    -3.536643310353     8.667171437889
C                    -8.621117997219    -4.977287419213     7.175666398069
C                    -7.905732062830    -5.379740002026     4.774468706577
C                    -8.351201376430    -6.265071668590     3.617296754229
N                    -9.562143273868    -5.440211748943     8.025427936721
N                    -7.694127595594    -4.049890133231     7.431853706630
N                    -8.686186484310    -5.576930354099     5.918357644175
O                    -6.978513363573    -4.596631058321     4.695687788012
H                    -8.640828398371    -3.502985157913    10.635564524003
H                   -10.314764228217    -5.278484599234     9.938986378489
H                    -6.961864972266    -2.780055368461     8.880222199359
H                    -9.384313621480    -6.040255302728     3.330273199496
H                    -8.300340011545    -7.324645091969     3.890764450441
H                    -7.695480273088    -6.081779378065     2.766717038816
H                    -9.433113761753    -6.259550688666     5.860775337123
