
  -OEChem-12102412493D

 15 15  0     0  0  0  0  0  0999 V2000
   -0.6168    0.7635   -1.6166 C   0  0  0  0  0  0  0  0  0  0  0  0
   -3.0072    2.2627   -3.3328 C   0  0  0  0  0  0  0  0  0  0  0  0
   -4.0664    1.3159   -2.7813 C   0  0  0  0  0  0  0  0  0  0  0  0
   -2.6310    0.8953   -2.8395 C   0  0  0  0  0  0  0  0  0  0  0  0
   -0.0447    0.6861   -0.2217 C   0  0  0  0  0  0  0  0  0  0  0  0
    0.0265    0.7821   -2.6459 O   0  0  0  0  0  0  0  0  0  0  0  0
   -1.9783    0.7980   -1.5761 O   0  0  0  0  0  0  0  0  0  0  0  0
   -2.9636    2.4468   -4.4019 H   0  0  0  0  0  0  0  0  0  0  0  0
   -2.7244    3.1043   -2.7083 H   0  0  0  0  0  0  0  0  0  0  0  0
   -4.4713    1.5435   -1.8002 H   0  0  0  0  0  0  0  0  0  0  0  0
   -4.7631    0.8466   -3.4692 H   0  0  0  0  0  0  0  0  0  0  0  0
   -2.3064    0.1448   -3.5522 H   0  0  0  0  0  0  0  0  0  0  0  0
   -0.3794    1.5440    0.3689 H   0  0  0  0  0  0  0  0  0  0  0  0
    1.0434    0.6719   -0.2758 H   0  0  0  0  0  0  0  0  0  0  0  0
   -0.4049   -0.2169    0.2799 H   0  0  0  0  0  0  0  0  0  0  0  0
  1  5  1  0  0  0  0
  1  6  2  0  0  0  0
  1  7  1  0  0  0  0
  2  3  1  0  0  0  0
  2  4  1  0  0  0  0
  2  8  1  0  0  0  0
  2  9  1  0  0  0  0
  3  4  1  0  0  0  0
  3 10  1  0  0  0  0
  3 11  1  0  0  0  0
  4  7  1  0  0  0  0
  4 12  1  0  0  0  0
  5 13  1  0  0  0  0
  5 14  1  0  0  0  0
  5 15  1  0  0  0  0
M  END
$$$$
