
  -OEChem-12122420533D

 16 16  0     0  0  0  0  0  0999 V2000
    4.3125    5.5315   -0.6528 C   0  0  0  0  0  0  0  0  0  0  0  0
    3.3651    4.5295   -1.0276 C   0  0  0  0  0  0  0  0  0  0  0  0
    4.5197    6.4570   -1.6409 C   0  0  0  0  0  0  0  0  0  0  0  0
    2.8752    4.7235   -2.2994 C   0  0  0  0  0  0  0  0  0  0  0  0
    1.4321    4.0755   -4.2005 C   0  0  0  0  0  0  0  0  0  0  0  0
    0.4192    3.0414   -4.6537 C   0  0  0  0  0  0  0  0  0  0  0  0
    1.9346    3.8999   -2.9314 N   0  0  0  0  0  0  0  0  0  0  0  0
    1.7848    5.0110   -4.9139 O   0  0  0  0  0  0  0  0  0  0  0  0
    3.5652    6.1352   -3.0603 S   0  0  0  0  0  0  0  0  0  0  0  0
    4.8130    5.5565    0.3095 H   0  0  0  0  0  0  0  0  0  0  0  0
    3.0598    3.7055   -0.3891 H   0  0  0  0  0  0  0  0  0  0  0  0
    5.1782    7.3163   -1.6266 H   0  0  0  0  0  0  0  0  0  0  0  0
   -0.5147    3.5525   -4.9022 H   0  0  0  0  0  0  0  0  0  0  0  0
    0.2140    2.2665   -3.9095 H   0  0  0  0  0  0  0  0  0  0  0  0
    0.7885    2.5680   -5.5673 H   0  0  0  0  0  0  0  0  0  0  0  0
    1.6075    3.1119   -2.3874 H   0  0  0  0  0  0  0  0  0  0  0  0
  1  2  1  0  0  0  0
  1  3  2  0  0  0  0
  1 10  1  0  0  0  0
  2  4  2  0  0  0  0
  2 11  1  0  0  0  0
  3  9  1  0  0  0  0
  3 12  1  0  0  0  0
  4  7  1  0  0  0  0
  4  9  1  0  0  0  0
  5  6  1  0  0  0  0
  5  7  1  0  0  0  0
  5  8  2  0  0  0  0
  6 13  1  0  0  0  0
  6 14  1  0  0  0  0
  6 15  1  0  0  0  0
  7 16  1  0  0  0  0
M  END
$$$$
