20
0 1 C7H9N3O
C                    -4.805490625156     0.852502195052    -4.741038528972
C                    -4.009148456983     1.910369588146    -4.307567345521
C                    -4.801576888715    -0.289301842545    -3.933396363560
C                    -3.307472033010     0.677871080228    -2.526194492254
C                    -1.767323997381    -0.553011241111    -1.093199290717
C                    -1.017859865558    -0.572666745419     0.230065211113
C                    -2.220314697181     1.869612904433    -0.672383724225
N                    -3.248874473021     1.832254993649    -3.207703930394
N                    -4.074364706227    -0.381881199756    -2.818854503961
N                    -2.520015618055     0.604916714967    -1.357063605912
O                    -1.701647961935    -1.489120392680    -1.873492233771
H                    -5.407091166464     0.917549393344    -5.641696262953
H                    -3.967665334670     2.850723661713    -4.855569363405
H                    -5.418438641483    -1.153605615455    -4.176731524039
H                    -1.688745912441    -0.400903395362     1.077590176993
H                    -0.234609033567     0.191386817977     0.260811174360
H                    -0.555730852134    -1.554715167674     0.327496334872
H                    -2.112519478997     1.693332698792     0.397827319987
H                    -3.047404199169     2.560594466475    -0.827376665294
H                    -1.309492543212     2.340114205136    -1.058324459326
