21
0 1 C8H10N2O
C                    -3.644612352666     0.266101882821    -4.907488976877
C                    -4.928737637970     0.790372800523    -4.723472285084
C                    -2.780862744715     0.147201013021    -3.822439348585
C                    -5.283820764017     1.184538208920    -3.435232329461
C                    -3.245176085246     0.565057812143    -2.559058180364
C                    -1.431540551594    -0.422025688938    -1.207977997048
C                    -0.763943155864    -0.470406027638     0.159220310259
C                    -2.891096940662     1.355371265442    -0.258420092426
N                    -4.469515887099     1.076350627003    -2.377065982994
N                    -2.445228426358     0.516392829021    -1.381813007092
O                    -1.068851460955    -1.190658392075    -2.095077316582
H                    -3.310252996838    -0.045849347603    -5.893678554770
H                    -5.627785659905     0.895829965620    -5.547655223034
H                    -1.787769494472    -0.259585906863    -3.936684713081
H                    -6.267522367629     1.606226722015    -3.233601101069
H                    -1.485343845432    -0.589117758919     0.972609324303
H                    -0.185478041118     0.438856789260     0.353365067564
H                    -0.083884171290    -1.321776608975     0.151655124062
H                    -3.653681566331     0.853537593766     0.345985389730
H                    -3.328329669187     2.270674444404    -0.652088582255
H                    -2.039994747422     1.614433006402     0.368460609514
