
  -OEChem-12122420533D

 20 20  0     0  0  0  0  0  0999 V2000
   -4.8055    0.8525   -4.7410 C   0  0  0  0  0  0  0  0  0  0  0  0
   -4.0091    1.9104   -4.3076 C   0  0  0  0  0  0  0  0  0  0  0  0
   -4.8016   -0.2893   -3.9334 C   0  0  0  0  0  0  0  0  0  0  0  0
   -3.3075    0.6779   -2.5262 C   0  0  0  0  0  0  0  0  0  0  0  0
   -1.7673   -0.5530   -1.0932 C   0  0  0  0  0  0  0  0  0  0  0  0
   -1.0179   -0.5727    0.2301 C   0  0  0  0  0  0  0  0  0  0  0  0
   -2.2203    1.8696   -0.6724 C   0  0  0  0  0  0  0  0  0  0  0  0
   -3.2489    1.8323   -3.2077 N   0  0  0  0  0  0  0  0  0  0  0  0
   -4.0744   -0.3819   -2.8189 N   0  0  0  0  0  0  0  0  0  0  0  0
   -2.5200    0.6049   -1.3571 N   0  0  0  0  0  0  0  0  0  0  0  0
   -1.7016   -1.4891   -1.8735 O   0  0  0  0  0  0  0  0  0  0  0  0
   -5.4071    0.9175   -5.6417 H   0  0  0  0  0  0  0  0  0  0  0  0
   -3.9677    2.8507   -4.8556 H   0  0  0  0  0  0  0  0  0  0  0  0
   -5.4184   -1.1536   -4.1767 H   0  0  0  0  0  0  0  0  0  0  0  0
   -1.6887   -0.4009    1.0776 H   0  0  0  0  0  0  0  0  0  0  0  0
   -0.2346    0.1914    0.2608 H   0  0  0  0  0  0  0  0  0  0  0  0
   -0.5557   -1.5547    0.3275 H   0  0  0  0  0  0  0  0  0  0  0  0
   -2.1125    1.6933    0.3978 H   0  0  0  0  0  0  0  0  0  0  0  0
   -3.0474    2.5606   -0.8274 H   0  0  0  0  0  0  0  0  0  0  0  0
   -1.3095    2.3401   -1.0583 H   0  0  0  0  0  0  0  0  0  0  0  0
  1  2  1  0  0  0  0
  1  3  2  0  0  0  0
  1 12  1  0  0  0  0
  2  8  2  0  0  0  0
  2 13  1  0  0  0  0
  3  9  1  0  0  0  0
  3 14  1  0  0  0  0
  4  8  1  0  0  0  0
  4  9  2  0  0  0  0
  4 10  1  0  0  0  0
  5  6  1  0  0  0  0
  5 10  1  0  0  0  0
  5 11  2  0  0  0  0
  6 15  1  0  0  0  0
  6 16  1  0  0  0  0
  6 17  1  0  0  0  0
  7 10  1  0  0  0  0
  7 18  1  0  0  0  0
  7 19  1  0  0  0  0
  7 20  1  0  0  0  0
M  END
$$$$
