16
0 1 C6H7NOS
C                    -0.053656632373     0.955428051545    -2.011201638586
C                    -0.306026731710     0.002825398839    -0.970933959838
C                    -0.802229301684     0.753424748073    -3.138025172067
C                    -1.258109414889    -0.916798406214    -1.340075498711
C                    -1.439168514084    -2.374695311424     0.657231290433
C                    -2.175335470374    -3.592844576012     1.189424790037
N                    -1.788633519146    -2.001587250684    -0.626891655908
O                    -0.602374044929    -1.775149644601     1.322654683305
S                    -1.852195793267    -0.624471437476    -2.960807222075
H                     0.664270956034     1.763936638804    -1.917954581446
H                     0.177952559088    -0.014008405580    -0.004916114497
H                    -0.811575460242     1.316981337387    -4.061467043612
H                    -1.438284280132    -4.350752407579     1.467700489841
H                    -2.885322786485    -4.030676999904     0.481870382027
H                    -2.711335092940    -3.306197118107     2.098206801813
H                    -2.489674406581    -2.559468086323    -1.095797841869
