26   
torsion grid (-165,)
C       -2.4055322730   -2.6506071249   -1.4467135922
C        5.6584512754    1.2274149147    0.3505958040
C       -1.7120943918   -1.5592634253   -1.9825178428
C       -1.8723765121   -3.3382264487   -0.3524142792
C        5.1523866624    1.2332146916   -0.9568958361
C        4.9899979193    0.4986309221    1.3353533388
C       -0.4976145155   -1.1525763240   -1.4242111356
C       -0.6524674893   -2.9352822124    0.2004813476
C        3.9954614331    0.5233042223   -1.2710126821
C        3.8277074047   -0.2237469570    1.0339695020
C        0.0401954807   -1.8382962826   -0.3264913534
C        3.3314418624   -0.2128249934   -0.2768653792
C        1.3212778495   -1.3756319850    0.3238530769
O        2.2093465162   -0.8879106438   -0.6837538907
H       -3.3503021298   -2.9655227691   -1.8823404268
H        6.5587216150    1.7843261762    0.5944828594
H       -2.1187519069   -1.0244913243   -2.8372404129
H       -2.3995039498   -4.1923924196    0.0648464920
H        5.6590995598    1.7991789581   -1.7345081318
H        5.3707240789    0.4847388984    2.3535479518
H        0.0458078337   -0.3114644987   -1.8438739903
H       -0.2367515981   -3.4825923155    1.0443246639
H        3.5888830035    0.5207598748   -2.2783238343
H        3.3314004701   -0.7870505681    1.8163619348
H        1.7856355352   -2.2049329190    0.8730428650
H        1.1143612202   -0.5694132531    1.0420235844
26   
torsion grid (-150,)
C       -2.3912830865   -2.5944100132   -1.4694963856
C        5.5930843641    1.3017095059    0.3445816045
C       -1.6163792362   -1.5837241762   -2.0502533883
C       -1.9352814000   -3.2374699171   -0.3149580737
C        5.0261090093    1.3394917269   -0.9361722458
C        5.0415106009    0.4573670220    1.3108997742
C       -0.3973939187   -1.2122880825   -1.4775853991
C       -0.7107504905   -2.8699763576    0.2524315528
C        3.9207559463    0.5470935849   -1.2452435564
C        3.9371060510   -0.3495911664    1.0116946287
C        0.0635740589   -1.8529685674   -0.3193239656
C        3.3808978967   -0.3086102597   -0.2740843995
C        1.3497539600   -1.4224831128    0.3438372426
O        2.3063130965   -1.0712517510   -0.6618903997
H       -3.3393330747   -2.8819592104   -1.9167884292
H        6.4501308318    1.9246673593    0.5846520168
H       -1.9631184867   -1.0846842954   -2.9517271669
H       -2.5258674671   -4.0296310988    0.1381387369
H        5.4404246446    1.9978628389   -1.6955375217
H        5.4711497583    0.4193150953    2.3088068653
H        0.2094388096   -0.4350005640   -1.9319573204
H       -0.3552858910   -3.3829760867    1.1440033145
H        3.4651874283    0.5702026426   -2.2311181155
H        3.5274976268   -1.0060328823    1.7724665582
H        1.7354009014   -2.2353609367    0.9723989662
H        1.1755473722   -0.5510431625    0.9900968906
26   
torsion grid (-135,)
C       -2.3648519549   -2.6094798372   -1.4968018186
C        5.5732445950    1.3144752658    0.3556835571
C       -1.5294322825   -1.6888868172   -2.1400144271
C       -1.9812920355   -3.1464232634   -0.2642615475
C        4.9029708693    1.4515563839   -0.8657753939
C        5.1498684985    0.3417639369    1.2663797409
C       -0.3226928718   -1.3015717558   -1.5520872743
C       -0.7688700659   -2.7637848321    0.3188955490
C        3.8167184366    0.6290648335   -1.1720164531
C        4.0699728653   -0.4947766757    0.9647087778
C        0.0656901063   -1.8353337104   -0.3157170408
C        3.4071994064   -0.3533816098   -0.2617108392
C        1.3376816868   -1.3809583759    0.3590660632
O        2.3487005615   -1.1530475933   -0.6329071575
H       -3.3033632698   -2.9100074547   -1.9555544911
H        6.4136891595    1.9599744755    0.5952554899
H       -1.8190570714   -1.2731019795   -3.1019024099
H       -2.6192959527   -3.8688834878    0.2383793843
H        5.2191698265    2.2090883783   -1.5784599372
H        5.6639561419    0.2265582110    2.2173085430
H        0.3318172733   -0.5957260395   -2.0541895513
H       -0.4704169289   -3.1949953918    1.2725445760
H        3.2803162317    0.7270846035   -2.1115326332
H        3.7555925896   -1.2551349950    1.6733098192
H        1.6680411722   -2.1404336625    1.0787714545
H        1.1669370187   -0.4468780100    0.9114422760
26   
torsion grid (-120,)
C       -2.3237189997   -2.9186654501   -1.4164304526
C        5.6920168430    1.0976352144    0.4875454374
C       -1.2475760266   -2.5820045701   -2.2419979619
C       -2.2497149373   -2.6525054846   -0.0439099184
C        4.7489310663    1.8382438305   -0.2329081787
C        5.4198787785   -0.2358299407    0.8136094590
C       -0.1007874514   -1.9858295978   -1.7043317802
C       -1.1066782444   -2.0555383076    0.4920277430
C        3.5370149901    1.2560116511   -0.6167317607
C        4.2151797270   -0.8293577834    0.4255552270
C       -0.0229538235   -1.7203790209   -0.3328259698
C        3.2729934721   -0.0774841751   -0.2879788520
C        1.2080052502   -1.1058726197    0.2912686409
O        2.0875469829   -0.6318319541   -0.7329410394
H       -3.2134560034   -3.3807507166   -1.8364208838
H        6.6318574457    1.5526237013    0.7881044563
H       -1.2987889028   -2.7820508123   -3.3094454950
H       -3.0828588937   -2.9062442851    0.6066769650
H        4.9533427612    2.8735667721   -0.4936290756
H        6.1524951836   -0.8218197440    1.3628114818
H        0.7336118985   -1.7195495673   -2.3440585714
H       -1.0582716109   -1.8470206156    1.5596629065
H        2.7910141164    1.8149480368   -1.1745017974
H        4.0161435782   -1.8717422456    0.6579982960
H        1.7184479633   -1.8527567008    0.9139726268
H        0.9284992133   -0.2679911620    0.9451549337
26   
torsion grid (-105,)
C       -2.3037394590   -2.9785147258   -1.3839079409
C        5.6798379724    1.0662065014    0.5247540832
C       -1.1920075722   -2.7442072967   -2.1977515132
C       -2.2808969161   -2.5594332411   -0.0482661211
C        4.6803721951    1.8587861671   -0.0496437493
C        5.4761017351   -0.3111646563    0.6690889614
C       -0.0609106412   -2.0985391578   -1.6846261575
C       -1.1535787443   -1.9125446026    0.4625795657
C        3.4776313162    1.2826872891   -0.4717668653
C        4.2794986504   -0.8958091746    0.2444450463
C       -0.0342338761   -1.6797123131   -0.3498792240
C        3.2829184924   -0.0935843283   -0.3235201345
C        1.1769733778   -1.0036510240    0.2478957633
O        2.1059077652   -0.6576613954   -0.7852984888
H       -3.1811730767   -3.4794436582   -1.7848521572
H        6.6130234097    1.5165754935    0.8520783139
H       -1.2032734905   -3.0631840533   -3.2370942013
H       -3.1417571428   -2.7327511869    0.5925853251
H        4.8357608867    2.9278659314   -0.1701902333
H        6.2537359705   -0.9335740280    1.1044758036
H        0.8011479549   -1.9114882749   -2.3157638416
H       -1.1452647142   -1.5847629088    1.5009027885
H        2.6910883454    1.8803661566   -0.9241486569
H        4.1181184610   -1.9668722370    0.3338123402
H        1.6617799474   -1.6731379319    0.9725940527
H        0.8789376716   -0.0948908245    0.7899745527
26   
torsion grid (-90,)
C       -2.2417147833   -2.9385817064   -1.4270373917
C        5.7110590997    1.1213901435    0.5650616966
C       -1.1380136158   -2.6812289114   -2.2444370720
C       -2.2132711801   -2.5421291093   -0.0843789467
C        4.6678366431    1.8611371744   -0.0032958003
C        5.5894335917   -0.2668365502    0.6929900968
C       -0.0101173021   -2.0311377294   -1.7292328012
C       -1.0881843476   -1.8945868363    0.4298908976
C        3.5045465233    1.2192692211   -0.4394560985
C        4.4287869184   -0.9156386618    0.2596266801
C        0.0209486705   -1.6335441892   -0.3883457028
C        3.3907989187   -0.1682538257   -0.3056150584
C        1.2147010829   -0.9225558705    0.2044094935
O        2.2567932487   -0.8135236477   -0.7707956836
H       -3.1161429549   -3.4436398932   -1.8293578498
H        6.6150689336    1.6226229399    0.9003100491
H       -1.1519479049   -2.9869069419   -3.2877445303
H       -3.0660585280   -2.7386347802    0.5605637749
H        4.7614414506    2.9385856859   -0.1127733946
H        6.4004923425   -0.8466709430    1.1261323492
H        0.8483712688   -1.8314908626   -2.3611755544
H       -1.0724819928   -1.5904967343    1.4753996326
H        2.6901526437    1.7765816889   -0.8946837841
H        4.3213655321   -1.9940017608    0.3405422890
H        1.5879957740   -1.4716478720    1.0808339279
H        0.9262683186    0.0821560955    0.5462053610
26   
torsion grid (-75,)
C       -2.2432207793   -2.9148922260   -1.4592284956
C        5.7057109226    1.1500248537    0.5487028234
C       -1.1018604616   -2.7196605334   -2.2414933174
C       -2.2563544021   -2.4646193273   -0.1334934659
C        4.5806283869    1.8481829057    0.0942938173
C        5.6803572487   -0.2477164674    0.5984084441
C        0.0219349775   -2.0768617679   -1.7087366724
C       -1.1350104875   -1.8253372407    0.3991293501
C        3.4344543294    1.1560823505   -0.3069628781
C        4.5347959254   -0.9476667209    0.2051142993
C        0.0107777681   -1.6247566089   -0.3848168846
C        3.4158731024   -0.2424405230   -0.2471850624
C        1.1942364296   -0.9081473911    0.2215704459
O        2.3075053592   -0.9514712828   -0.6771384188
H       -3.1142109501   -3.4147263860   -1.8752893627
H        6.5964792239    1.6915344019    0.8554603595
H       -1.0829502134   -3.0690388805   -3.2708975123
H       -3.1380231732   -2.6141451323    0.4846447896
H        4.5984942721    2.9338447343    0.0423187037
H        6.5529047139   -0.7959563719    0.9444024384
H        0.9101660963   -1.9268847176   -2.3128163722
H       -1.1508883174   -1.4809841879    1.4320524412
H        2.5637535815    1.6881415611   -0.6810719729
H        4.4967212811   -2.0330973891    0.2331488168
H        1.4780962932   -1.3773390419    1.1745109892
H        0.9301006411    0.1366845103    0.4368798734
26   
torsion grid (-60,)
C       -2.1857465355   -3.0365472569   -1.4226766276
C        5.7599950322    1.0873267418    0.5564171952
C       -1.0039438759   -2.9205235976   -2.1591270432
C       -2.2846366274   -2.4106171051   -0.1740611858
C        4.5953784397    1.8280193066    0.3258828684
C        5.7383299139   -0.3014738022    0.3894206734
C        0.0753310907   -2.1833809441   -1.6571033914
C       -1.2080573318   -1.6762792337    0.3271942912
C        3.4150092629    1.1908881296   -0.0681719315
C        4.5601229552   -0.9487106500    0.0056191635
C       -0.0211643949   -1.5557098310   -0.4106701918
C        3.3997427491   -0.2014124084   -0.2218537991
C        1.1108473724   -0.7331515673    0.1596091021
O        2.2757420422   -0.8763305796   -0.6580394131
H       -3.0218974197   -3.6101708290   -1.8142720553
H        6.6755336478    1.5884935234    0.8584649219
H       -0.9183286707   -3.4055113416   -3.1284281373
H       -3.1982373325   -2.4971962543    0.4087025045
H        4.6065442535    2.9088940711    0.4412899780
H        6.6390127313   -0.8849613858    0.5625323829
H        0.9946520797   -2.0952181474   -2.2256462538
H       -1.2909962339   -1.1948961284    1.3004202133
H        2.5196337014    1.7718593273   -0.2698692490
H        4.5224613020   -2.0262182811   -0.1268066557
H        1.3438142157   -1.0605831998    1.1823516545
H        0.8089848736    0.3214727161    0.2119314777
26   
torsion grid (-45,)
C       -2.0282870359   -3.2366487875   -1.3562251623
C        5.8342100616    0.8495399302    0.5554692430
C       -0.6749789683   -3.5126979426   -1.5836610613
C       -2.3901988236   -2.0726546080   -0.6717321645
C        4.6771573112    1.5115546495    0.9769279823
C        5.7209739809   -0.2515197381   -0.3018188152
C        0.3101341207   -2.6354633590   -1.1236465657
C       -1.4029675017   -1.1911525806   -0.2189659732
C        3.4149963193    1.0853932765    0.5498381466
C        4.4653656792   -0.6923450456   -0.7249390968
C       -0.0474010963   -1.4680481546   -0.4352112030
C        3.3098147708   -0.0285290918   -0.2939152890
C        1.0092140576   -0.5425171810    0.1182542523
O        2.1080730790   -0.4696325348   -0.8013412951
H       -2.7936949917   -3.9200635444   -1.7149382378
H        6.8115794359    1.1882491440    0.8878043956
H       -0.3877170085   -4.4129543066   -2.1212383889
H       -3.4390152442   -1.8455343420   -0.4984465038
H        4.7534738727    2.3736921195    1.6347404736
H        6.6132234916   -0.7730549263   -0.6389158430
H        1.3599503476   -2.8422658501   -1.3080763386
H       -1.6920034223   -0.2805345616    0.3022415590
H        2.5241902188    1.6178852640    0.8691203654
H        4.3601284454   -1.5447163544   -1.3900489525
H        1.3787637881   -0.9148500925    1.0834061737
H        0.5802854476    0.4535780708    0.2849581709
26   
torsion grid (-30,)
C       -2.0395827151   -3.2378352028   -1.3203748773
C        5.8426980165    0.8769181568    0.5448672464
C       -0.6864786929   -3.5714530439   -1.4509395643
C       -2.3969899876   -2.0094209740   -0.7567242689
C        4.6715711367    1.4121702850    1.0858027961
C        5.7515323350   -0.1356578166   -0.4193925880
C        0.3027544376   -2.6868380470   -1.0143077005
C       -1.4052344969   -1.1213276371   -0.3275237199
C        3.4152486998    0.9496526754    0.6755550888
C        4.5069038042   -0.6114850744   -0.8306924477
C       -0.0505049006   -1.4546949868   -0.4472165987
C        3.3349839259   -0.0742551781   -0.2783037887
C        1.0061356486   -0.5153484821    0.0820803438
O        2.1505325068   -0.5582176836   -0.7770708204
H       -2.8080865427   -3.9271495871   -1.6606746603
H        6.8135227810    1.2429772703    0.8669182580
H       -0.4023930347   -4.5225921199   -1.8942872056
H       -3.4450853514   -1.7380564290   -0.6595332963
H        4.7280814048    2.2034618698    1.8291264776
H        6.6548516984   -0.5599700540   -0.8503429407
H        1.3530756688   -2.9397144156   -1.1232130214
H       -1.6899020966   -0.1613116398    0.0987958507
H        2.5163163635    1.3876449692    1.0967857368
H        4.4189648760   -1.3955365202   -1.5773986670
H        1.3089656050   -0.8111800594    1.0960933190
H        0.6056111280    0.5051479246    0.1351531826
26   
torsion grid (-15,)
C       -2.0857847593   -3.2179230634   -1.3240481080
C        5.8318123279    0.9512493777    0.5007121496
C       -0.7480847735   -3.6290732189   -1.3542760968
C       -2.4061404088   -1.9401693252   -0.8561079719
C        4.6568850138    1.3525273936    1.1379790023
C        5.7614688066   -0.0059108618   -0.5214068362
C        0.2624926298   -2.7715654199   -0.9126825298
C       -1.3922035292   -1.0798624962   -0.4220047760
C        3.4177752934    0.8116916520    0.7694901029
C        4.5369896930   -0.5553764095   -0.8953426520
C       -0.0535249519   -1.4897158817   -0.4416258521
C        3.3589914789   -0.1518306628   -0.2469158594
C        1.0222709920   -0.5752808970    0.0914269945
O        2.2003656116   -0.7255930064   -0.7034529727
H       -2.8709430585   -3.8863750807   -1.6678821280
H        6.7882319310    1.3762064281    0.7918929788
H       -0.4927427143   -4.6194653322   -1.7228230364
H       -3.4414039396   -1.6093292464   -0.8373817980
H        4.6941442807    2.0973894356    1.9290032045
H        6.6674821636   -0.3278438457   -1.0286002848
H        1.3015570076   -3.0854335208   -0.9435002865
H       -1.6467309783   -0.0817772946   -0.0707365571
H        2.5188033694    1.1482653659    1.2736787827
H        4.4669950846   -1.2971928408   -1.6857622004
H        1.2564306854   -0.8302714396    1.1347588532
H        0.6779180873    0.4667549273    0.0681461130
26   
torsion grid (0,)
C       -2.3124977229   -3.2243927628   -1.3527191516
C        5.6482862839    0.9311110309    0.4572741196
C       -1.0963599185   -3.1999780980   -2.0450318010
C       -2.4906597886   -2.3974624952   -0.2396089751
C        4.4262120902    1.5609651216    0.6942642708
C        5.6553789519   -0.3835837376   -0.0307832967
C       -0.0670130176   -2.3499506368   -1.6326621778
C       -1.4569187588   -1.5525420969    0.1772224481
C        3.2139037932    0.9006703023    0.4508911682
C        4.4594889969   -1.0531371473   -0.2778462356
C       -0.2417168520   -1.5187212753   -0.5177047442
C        3.2325022078   -0.4125764998   -0.0390019586
C        0.8387209286   -0.5543257123   -0.0934776356
O        2.1145996438   -1.1549819900   -0.3167011093
H       -3.1120631362   -3.8864157585   -1.6751127313
H        6.5820857096    1.4518188187    0.6495304394
H       -0.9498905035   -3.8450393712   -2.9077786714
H       -3.4285717573   -2.4160188720    0.3095084745
H        4.4043982096    2.5793893763    1.0740353026
H        6.5988973151   -0.8895320852   -0.2193178972
H        0.8799611374   -2.3362222136   -2.1636718341
H       -1.5975917942   -0.9204430564    1.0519097578
H        2.2799962512    1.4145530324    0.6477401958
H        4.4484689609   -2.0719131037   -0.6545630311
H        0.7233755104   -0.2939279734    0.9666250872
H        0.7659098433    0.3735815422   -0.6790571466
26   
torsion grid (15,)
C       -2.2905613589   -3.2096441071   -1.4003631614
C        5.6463359166    0.9544534187    0.3573055012
C       -1.0253992654   -3.2486514316   -1.9976594178
C       -2.5276619177   -2.3287714091   -0.3409019390
C        4.4383125368    1.5425821456    0.7345788535
C        5.6383004083   -0.3432940263   -0.1733489820
C       -0.0057194796   -2.4077961355   -1.5445313593
C       -1.5037145346   -1.4933616958    0.1171506215
C        3.2261809214    0.8546958572    0.5890706624
C        4.4406942682   -1.0380726521   -0.3281093127
C       -0.2390533232   -1.5223676979   -0.4834148971
C        3.2282822947   -0.4387286016    0.0487194408
C        0.8342294206   -0.5671054477   -0.0210866747
O        2.1066046493   -1.2104221560   -0.1136747263
H       -3.0827443798   -3.8644635510   -1.7541788923
H        6.5813135078    1.4949723842    0.4746182520
H       -0.8333356879   -3.9358917322   -2.8178535718
H       -3.5045241179   -2.2978562784    0.1348653314
H        4.4290599897    2.5463795347    1.1519552816
H        6.5712270144   -0.8156497865   -0.4704428427
H        0.9787699582   -2.4427122903   -2.0010761405
H       -1.6911938605   -0.8189382841    0.9504892411
H        2.3025675908    1.3307131955    0.8989550167
H        4.4183410396   -2.0442013896   -0.7370309284
H        0.6400984006   -0.2538612362    1.0129545044
H        0.8389249370    0.3337659684   -0.6511536322
26   
torsion grid (30,)
C       -2.2555622079   -3.2123575321   -1.4382570652
C        5.6338066672    0.9604149492    0.2668917911
C       -0.9503771560   -3.3079815475   -1.9345225281
C       -2.5502265737   -2.2718110757   -0.4466882841
C        4.4641725751    1.5130230052    0.7934665190
C        5.5863282634   -0.3100189029   -0.3222779069
C        0.0521428839   -2.4645891165   -1.4489751210
C       -1.5437283064   -1.4338216553    0.0441796877
C        3.2526840529    0.8131534406    0.7386516130
C        4.3845938054   -1.0142112844   -0.3910870419
C       -0.2385264267   -1.5191507079   -0.4560586631
C        3.2123945586   -0.4504156549    0.1333323526
C        0.8196125670   -0.5609703418    0.0356927542
O        2.0838405040   -1.2309148874    0.0759170486
H       -3.0342826060   -3.8694023249   -1.8169922272
H        6.5703456169    1.5088285455    0.3153955445
H       -0.7137234134   -4.0417408271   -2.7010238328
H       -3.5589726428   -2.1963167921   -0.0487854027
H        4.4886211973    2.4945781341    1.2601830069
H        6.4894867675   -0.7530469265   -0.7343106718
H        1.0672216538   -2.5435138655   -1.8260423217
H       -1.7770430626   -0.7125077504    0.8250315057
H        2.3573042739    1.2526048612    1.1658553858
H        4.3311507648   -2.0000706826   -0.8441341257
H        0.5518979054   -0.1894208559    1.0332014013
H        0.8946284639    0.3048485241   -0.6367797345
26   
torsion grid (45,)
C       -2.2312152777   -3.2388536996   -1.4190117843
C        5.6253716089    0.9688487428    0.2441011340
C       -0.9017852205   -3.4063420229   -1.8233075445
C       -2.5591046538   -2.2074492677   -0.5338705735
C        4.5086959634    1.4541138127    0.9312126382
C        5.5262134465   -0.2336434493   -0.4660613242
C        0.0921690280   -2.5445706589   -1.3525899053
C       -1.5616268472   -1.3507803680   -0.0570748843
C        3.3001378235    0.7497383306    0.9152588026
C        4.3216054399   -0.9390522716   -0.4982078925
C       -0.2316053392   -1.5080064528   -0.4666931459
C        3.2050344868   -0.4439363192    0.1872030742
C        0.8207299935   -0.5325420371    0.0034452135
O        2.0678435246   -1.2204002262    0.1730552040
H       -3.0033299038   -3.9102491063   -1.7859424792
H        6.5622282184    1.5186804863    0.2636203117
H       -0.6394841317   -4.2107566680   -2.5060221470
H       -3.5874248981   -2.0752279597   -0.2071958549
H        4.5771925452    2.3817352903    1.4939337998
H        6.3885890832   -0.6221382901   -1.0018821962
H        1.1256387327   -2.6789983554   -1.6567147055
H       -1.8217045662   -0.5577232363    0.6414487656
H        2.4438464812    1.1261058215    1.4666937785
H        4.2275010891   -1.8733531298   -1.0443448626
H        0.5041940616   -0.0715108016    0.9475641876
H        0.9558159494    0.2708287690   -0.7335420366
26   
torsion grid (60,)
C       -2.3444053359   -3.2526202183   -1.1790916213
C        5.5842133855    1.0397423597    0.4836227102
C       -1.0448509307   -3.7468170534   -1.0399381606
C       -2.5836726848   -1.8834758718   -1.0092841471
C        4.5805610386    0.9688599190    1.4560958883
C        5.4177402411    0.3634364584   -0.7296733807
C        0.0131416874   -2.8832456402   -0.7314689319
C       -1.5285103923   -1.0220699734   -0.7024994271
C        3.4170362180    0.2296374296    1.2231130267
C        4.2533018755   -0.3699136033   -0.9759344044
C       -0.2230623605   -1.5151804977   -0.5597177476
C        3.2541131172   -0.4350341826    0.0008268923
C        0.8854790693   -0.5509897050   -0.2064427881
O        2.1482442864   -1.2205511423   -0.2622007250
H       -3.1639721397   -3.9249498450   -1.4195498517
H        6.4881979406    1.6124204403    0.6719456875
H       -0.8504024626   -4.8082906362   -1.1724243694
H       -3.5903894229   -1.4880126085   -1.1183888091
H        4.7070403611    1.4811799940    2.4064980320
H        6.1934950242    0.4095880720   -1.4897562844
H        1.0230236037   -3.2644233890   -0.6264749238
H       -1.7215566360    0.0419877933   -0.5748823207
H        2.6511433613    0.1568834532    1.9899335470
H        4.1043574722   -0.8997284569   -1.9124681735
H        0.7132269076   -0.1449655569    0.7993280668
H        0.8933956821    0.2956263676   -0.9069224676
26   
torsion grid (75,)
C       -2.1089317484   -3.2653448876   -1.0748749374
C        5.7821328592    1.0792809622    0.5304189252
C       -0.8423153436   -3.7687509302   -0.7656844456
C       -2.2934971494   -1.8819845181   -1.1854780070
C        4.8600179361    0.7629547061    1.5349661267
C        5.5700503014    0.6211729968   -0.7742537720
C        0.2362658505   -2.8996909121   -0.5638347357
C       -1.2166490001   -1.0150744042   -0.9874592068
C        3.7299961450   -0.0051253194    1.2398384504
C        4.4384113236   -0.1422743150   -1.0794068746
C        0.0546547929   -1.5165104946   -0.6720270167
C        3.5227148862   -0.4534223604   -0.0699795268
C        1.1864843168   -0.5453242756   -0.4329956280
O        2.4325371545   -1.2482442240   -0.3789704342
H       -2.9446283287   -3.9424757603   -1.2319414648
H        6.6616284265    1.6729222234    0.7646706214
H       -0.6902927853   -4.8420732829   -0.6822045498
H       -3.2735145265   -1.4801089923   -1.4301625801
H        5.0253564611    1.1062693809    2.5530419287
H        6.2857183087    0.8582141713   -1.5573621181
H        1.2213862210   -3.2881440221   -0.3288884098
H       -1.3661176540    0.0594268654   -1.0808435378
H        3.0191503285   -0.2729232312    2.0171214708
H        4.2573990089   -0.5102288937   -2.0855150377
H        1.0243531614   -0.0045559142    0.5100748291
H        1.2247888198    0.2029984319   -1.2373616470
26   
torsion grid (90,)
C       -2.1224362820   -3.2500236833   -1.0515588974
C        5.7655886840    1.0953761887    0.5328557651
C       -0.8876448223   -3.7516211358   -0.6308574584
C       -2.2619528324   -1.8793865014   -1.3003280147
C        4.9536096993    0.6361429491    1.5761181058
C        5.4522523374    0.7625563309   -0.7897825460
C        0.2033786722   -2.8926313177   -0.4544247332
C       -1.1722420679   -1.0230176293   -1.1282221493
C        3.8298199277   -0.1493999084    1.3014133889
C        4.3295679958   -0.0220072155   -1.0724151366
C        0.0669740119   -1.5220411373   -0.7011496919
C        3.5231151929   -0.4751864613   -0.0237395935
C        1.2130006090   -0.5600505577   -0.4950436404
O        2.4325029115   -1.2839241827   -0.2975048303
H       -2.9681685652   -3.9190986479   -1.1881104414
H        6.6398890329    1.7032220691    0.7496246157
H       -0.7703926305   -4.8154890761   -0.4396461208
H       -3.2168683021   -1.4795775608   -1.6321404196
H        5.1979419409    0.8847717234    2.6057468888
H        6.0848530219    1.1096640951   -1.6027878064
H        1.1640674018   -3.2799131574   -0.1325963888
H       -1.2864940259    0.0410474190   -1.3290656182
H        3.1950015885   -0.5240961836    2.0999845207
H        4.0776074742   -0.2998333794   -2.0923518379
H        1.0213463236    0.0751183826    0.3821714748
H        1.3144603219    0.1046482807   -1.3647231133
26   
torsion grid (105,)
C       -2.0967202381   -3.2373638118   -1.1669621546
C        5.8283272145    1.0545256130    0.4054267230
C       -0.8329148491   -3.7517633363   -0.8644828627
C       -2.2758748392   -1.8514318262   -1.2512401555
C        5.0675880675    0.6985601738    1.5241630480
C        5.4203240864    0.6448472740   -0.8694359985
C        0.2493902179   -2.8904668824   -0.6497312886
C       -1.1965824733   -0.9921871194   -1.0340251767
C        3.8996495227   -0.0562649733    1.3727504617
C        4.2578040252   -0.1148510396   -1.0288315035
C        0.0740958270   -1.5048035972   -0.7346999292
C        3.5001756836   -0.4614943555    0.0959258051
C        1.2228222915   -0.5445886082   -0.5349298117
O        2.3668292149   -1.2454733410   -0.0352648668
H       -2.9360157738   -3.9079105505   -1.3328194214
H        6.7350306873    1.6412622441    0.5256427040
H       -0.6867223208   -4.8268284600   -0.7937998213
H       -3.2557420463   -1.4410532376   -1.4820050131
H        5.3825387010    1.0083251828    2.5173749720
H        6.0132870218    0.9091699943   -1.7413265801
H        1.2304187679   -3.2865436632   -0.4107111025
H       -1.3444152446    0.0848085487   -1.0963727034
H        3.2976852777   -0.3463153530    2.2294784335
H        3.9424729504   -0.4545526195   -2.0118911574
H        0.9413806566    0.2463688912    0.1748588728
H        1.4745240666   -0.0560519001   -1.4869002727
26   
torsion grid (120,)
C       -2.1014914163   -3.2545461482   -1.1160077233
C        5.8536416922    1.0251536213    0.4325941994
C       -0.8565885124   -3.7424582683   -0.7096172734
C       -2.2619619183   -1.8833685758   -1.3489303856
C        5.1684035759    0.5398309029    1.5512671132
C        5.3446334675    0.7775968755   -0.8474683708
C        0.2261007161   -2.8718280333   -0.5380760560
C       -1.1829866142   -1.0139763456   -1.1757023047
C        3.9781580315   -0.1779425365    1.3966959686
C        4.1609209332    0.0527874271   -1.0124184743
C        0.0687831947   -1.5014642350   -0.7722379243
C        3.4763683977   -0.4208853757    0.1143485012
C        1.2179935124   -0.5317241461   -0.6263542767
O        2.3282057292   -1.1823763353   -0.0004041273
H       -2.9403120365   -3.9332588374   -1.2475033230
H        6.7764318507    1.5856010990    0.5552541219
H       -0.7250611727   -4.8054969668   -0.5233180179
H       -3.2269734966   -1.4922566520   -1.6612779540
H        5.5578649060    0.7231826306    2.5494159271
H        5.8769524088    1.1396677232   -1.7234050149
H        1.1918680441   -3.2482621370   -0.2186845039
H       -1.3162185237    0.0519031772   -1.3541386377
H        3.4317000784   -0.5607677304    2.2539268704
H        3.7812985844   -0.1604159598   -2.0077511395
H        0.9153093866    0.3320131694   -0.0177993676
H        1.5086997226   -0.1514623290   -1.6145843095
26   
torsion grid (135,)
C       -2.4265487629   -3.1059252203   -0.8087352342
C        5.5566794697    0.9122315544    0.7148470206
C       -1.3246202227   -3.3873062168    0.0049780917
C       -2.3681695626   -2.0293806335   -1.7004821324
C        5.0803182403   -0.1691100027    1.4655738596
C        4.9076176379    1.2624297875   -0.4729807607
C       -0.1736188359   -2.5957473711   -0.0640159695
C       -1.2148368963   -1.2438182652   -1.7746954896
C        3.9636486962   -0.8904396082    1.0378030681
C        3.7949916163    0.5400937769   -0.9169641767
C       -0.1118751428   -1.5164026748   -0.9537870152
C        3.3280781633   -0.5431975283   -0.1607805470
C        1.0952396027   -0.6089820768   -1.0127484057
O        2.2521235562   -1.3117927978   -0.5469596449
H       -3.3201381609   -3.7223731621   -0.7535949953
H        6.4215383922    1.4761813755    1.0530676875
H       -1.3600123989   -4.2265216879    0.6952814182
H       -3.2161639937   -1.8071306500   -2.3432930689
H        5.5724204544   -0.4455865001    2.3945992073
H        5.2696488503    2.0999825415   -1.0639258958
H        0.6855488333   -2.8177271249    0.5601614415
H       -1.1727075321   -0.4147897993   -2.4790452166
H        3.5754009441   -1.7261836715    1.6129504113
H        3.3048228834    0.8119858640   -1.8469315498
H        0.9377742822    0.2766893431   -0.3818839199
H        1.2449463493   -0.2618417524   -2.0432805472
26   
torsion grid (150,)
C       -2.3898413538   -3.0626985544   -0.8019639461
C        5.6162031586    0.9192505609    0.7004651800
C       -1.4027489251   -3.1424866454    0.1871862094
C       -2.2218525506   -2.1838803180   -1.8762068343
C        5.2811404097   -0.3103495752    1.2826987247
C        4.8059412376    1.4391171687   -0.3115464153
C       -0.2592582616   -2.3438295805    0.1069423909
C       -1.0726194254   -1.3909188775   -1.9593786008
C        4.1494448681   -1.0081007111    0.8612161089
C        3.6716748631    0.7450598855   -0.7498763030
C       -0.0868280106   -1.4602276775   -0.9672993966
C        3.3482419794   -0.4868443940   -0.1650310201
C        1.1151120750   -0.5492104102   -1.0353617725
O        2.2637767316   -1.2434071368   -0.5369792886
H       -3.2790782163   -3.6846313279   -0.7386106388
H        6.4946246337    1.4641497326    1.0346724716
H       -1.5246277344   -3.8285754564    1.0216756200
H       -2.9790813635   -2.1218161234   -2.6535970767
H        5.8984114231   -0.7229684409    2.0767258963
H        5.0542463194    2.3926862528   -0.7707872220
H        0.5121230518   -2.4107675872    0.8681084622
H       -0.9423426002   -0.7181997128   -2.8049103153
H        3.8718424033   -1.9588938533    1.3072371799
H        3.0590269165    1.1602143620   -1.5434598443
H        0.9498825076    0.3502774774   -0.4262406438
H        1.2810914547   -0.2276959102   -2.0715354828
26   
torsion grid (165,)
C       -2.4080573215   -3.0644847338   -0.8553460837
C        5.6744792223    0.9060039165    0.6194694590
C       -1.5015271594   -3.0749205423    0.2110540066
C       -2.1579354473   -2.2549608403   -1.9673656736
C        5.4017565546   -0.3566940633    1.1644832081
C        4.7596757503    1.4764220083   -0.2667204011
C       -0.3561546201   -2.2759804630    0.1701030090
C       -1.0067767256   -1.4616840419   -2.0109724052
C        4.2320272529   -1.0357905913    0.8303654744
C        3.5808972167    0.8038143836   -0.6155601729
C       -0.1019124504   -1.4620926832   -0.9423585390
C        3.3188055181   -0.4590094240   -0.0665450080
C        1.1006895142   -0.5507114213   -0.9753102082
O        2.2025902356   -1.2056524490   -0.3437590937
H       -3.2987654977   -3.6866142714   -0.8218234747
H        6.5857623271    1.4344960546    0.8847456349
H       -1.6877961195   -3.7070390141    1.0757103866
H       -2.8520316409   -2.2472677626   -2.8038659523
H        6.1028827298   -0.8123582619    1.8591212791
H        4.9572037175    2.4547376308   -0.6977517497
H        0.3526581081   -2.2890834569    0.9925402975
H       -0.8114236397   -0.8432786684   -2.8849533797
H        4.0052778661   -2.0129752245    1.2471520340
H        2.8898639643    1.2656772952   -1.3118981305
H        0.8841162527    0.3853013887   -0.4410024972
H        1.3519675559   -0.2958618726   -2.0130411230
26   
torsion grid (180,)
C       -2.3918382199   -2.7112814673   -1.4500481177
C        5.7283630887    1.1303584060    0.3455517080
C       -1.7956792023   -1.5346953308   -1.9183314147
C       -1.7786328432   -3.4348696329   -0.4230104879
C        5.2598453662    1.1000747902   -0.9759066491
C        4.9643130228    0.5381555966    1.3514499465
C       -0.5985535921   -1.0801674451   -1.3594966363
C       -0.5760704082   -2.9827581026    0.1301173206
C        4.0466330017    0.4889869479   -1.2827048208
C        3.7413334175   -0.0811713655    1.0588442124
C        0.0197142271   -1.8017582472   -0.3290577359
C        3.2802880794   -0.1022942941   -0.2648528818
C        1.2826183479   -1.2939137678    0.3224450687
O        2.1038447890   -0.6769918738   -0.6696169850
H       -3.3232306196   -3.0634492663   -1.8859461610
H        6.6750596161    1.6074007606    0.5827496459
H       -2.2646611243   -0.9707428850   -2.7207701492
H       -2.2295728334   -4.3543928206   -0.0587461424
H        5.8444241343    1.5547886287   -1.7716822488
H        5.3154832751    0.5516580823    2.3802368351
H       -0.1307576356   -0.1721686470   -1.7278680902
H       -0.0976238819   -3.5574683296    0.9207724269
H        3.6710967529    0.4555214477   -2.3014416393
H        3.1710752166   -0.5362301483    1.8605285730
H        1.8237601392   -2.1199858740    0.8016241932
H        1.0350932839   -0.5563362999    1.0995706324
