17   
torsion grid (-165,)
C        0.6705154555    0.4461435151    1.7889786516
C        0.5454221109   -0.6293904774    0.9035996803
C        0.4867241486    0.2205863203    3.1531272575
C        0.2361467316   -1.8864824264    1.4273032709
C        0.1804897544   -1.0812941997    3.5517417579
C        0.8852616392   -2.0371993812    5.5965895436
C        0.3218111936   -2.5227862813    6.9060221819
N        0.0498417134   -2.1154052133    2.7362056435
O        1.9996904830   -2.2350737440    5.1754413327
O       -0.0704044999   -1.3204611136    4.9034719387
H        0.9111588399    1.4415001176    1.4252562662
H        0.6827909841   -0.5006247822   -0.1657542854
H        0.5773650492    1.0106902957    3.8911767652
H        0.1283098027   -2.7495377639    0.7728987857
H       -0.2569709803   -1.7366522800    7.3968290478
H        1.1320522540   -2.8639887995    7.5499979451
H       -0.3577189889   -3.3566967171    6.7024396349
17   
torsion grid (-150,)
C        0.6076929821    0.4641209385    1.7329823794
C        0.4871862014   -0.6724745306    0.9260299879
C        0.5151087793    0.3223329910    3.1170912485
C        0.2717320351   -1.9044935665    1.5467346724
C        0.2955196485   -0.9631724541    3.6168968243
C        0.9662331253   -2.0083837217    5.6395474364
C        0.2690315410   -2.6045893889    6.8319896156
N        0.1689463504   -2.0538577198    2.8760527500
O        2.0815870662   -2.2605699399    5.2564891533
O        0.1279111050   -1.1135452639    4.9885612404
H        0.7779305163    1.4430929706    1.2929460090
H        0.5574292022   -0.6089115670   -0.1555526388
H        0.6108579598    1.1622144867    3.7971524367
H        0.1704078667   -2.8136046797    0.9568058310
H       -0.2892392482   -1.8424956478    7.3812902077
H        0.9945969984   -3.0947994548    7.4809460794
H       -0.4518730578   -3.3425401427    6.4647834499
17   
torsion grid (-135,)
C        0.5282036683    0.4607366095    1.7113684133
C        0.4061777980   -0.7190402504    0.9677297105
C        0.5391885215    0.3861632244    3.1028847341
C        0.2930334351   -1.9258115890    1.6596063129
C        0.4140007715   -0.8816944062    3.6792008803
C        1.0575535845   -1.9925291484    5.6829100520
C        0.2129533041   -2.6560650142    6.7334363845
N        0.2880201437   -2.0125756729    2.9987134836
O        2.1854700618   -2.2776745505    5.3738223655
O        0.3479739237   -0.9619800238    5.0585084437
H        0.6221327253    1.4230420167    1.2151303688
H        0.3989977668   -0.7065855602   -0.1178061856
H        0.6439081446    1.2625137326    3.7337432282
H        0.1952674217   -2.8673851171    1.1223093191
H       -0.3323349417   -1.9137929039    7.3218557004
H        0.8326106519   -3.2811973819    7.3763384285
H       -0.5275106766   -3.2763226775    6.2169142205
17   
torsion grid (-120,)
C        0.4336959813    0.4680962090    1.6672843189
C        0.3054664540   -0.7411632932    0.9709681573
C        0.5397353814    0.4452876187    3.0551851788
C        0.2833008381   -1.9245864539    1.7079723078
C        0.5004968071   -0.8063242263    3.6825196133
C        1.1191984809   -1.9682602108    5.6641309098
C        0.1317411620   -2.6687320577    6.5507394208
N        0.3712604725   -1.9640144478    3.0474365745
O        2.2645864653   -2.2725744341    5.4662610278
O        0.5425725475   -0.8343572733    5.0577560812
H        0.4597013731    1.4149028041    1.1343078216
H        0.2263941752   -0.7666979878   -0.1113573532
H        0.6545835773    1.3466930235    3.6477569350
H        0.1853986855   -2.8879779566    1.2109311229
H       -0.4009019662   -1.9483444523    7.1773624287
H        0.6353583280   -3.4166555451    7.1633222664
H       -0.6073295922   -3.1522227729    5.9028287953
17   
torsion grid (-105,)
C        0.8166175567    0.6435831810    1.9642508217
C        0.4353317891    0.0016337408    0.7768689784
C        1.1687511126   -0.1218288323    3.0707804885
C        0.4217034267   -1.3911899742    0.7605736251
C        1.1141087190   -1.5165919143    2.9318751518
C        1.7399689689   -3.6390782890    3.7991297756
C        0.6165768258   -4.5462392776    4.2051811900
N        0.7499530359   -2.1475363159    1.8220663982
O        2.8197274430   -3.9548394973    3.3824666614
O        1.4245390554   -2.2756549962    4.0295444249
H        0.8452953975    1.7284959344    2.0224351798
H        0.1592293652    0.5646197517   -0.1090911062
H        1.4824379446    0.3184874465    4.0112922048
H        0.1338660742   -1.9352200851   -0.1371258615
H        0.2793066789   -4.2964733150    5.2152841282
H        0.9333724124   -5.5879942693    4.1526848593
H       -0.2215616119   -4.3722706251    3.5228048122
17   
torsion grid (-90,)
C        0.7578346019    0.5915361489    1.9996378822
C        0.3884947787   -0.0763731844    0.8218187230
C        1.1948887378   -0.1457344731    3.0937817443
C        0.4755005692   -1.4656318816    0.8026718947
C        1.2417504367   -1.5420834937    2.9529581542
C        1.8328281738   -3.6685794673    3.8416688925
C        0.5827452686   -4.4419211069    4.1471360264
N        0.8941407401   -2.1966303452    1.8511299657
O        2.9149253675   -4.1103822393    3.5749101619
O        1.6675905217   -2.2688650061    4.0294106159
H        0.7079448995    1.6755906653    2.0597899780
H        0.0462062301    0.4655307097   -0.0540631694
H        1.4995922295    0.3161148395    4.0269137654
H        0.2020694463   -2.0295160128   -0.0871987724
H        0.2537164463   -4.2099032423    5.1649633311
H        0.7718119969   -5.5107695789    4.0466162088
H       -0.2075584002   -4.1307962440    3.4589903384
17   
torsion grid (-75,)
C        0.6816465625    0.5516695980    2.0328994776
C        0.3057697157   -0.1052843751    0.8512793412
C        1.1825310648   -0.1904555772    3.0961874161
C        0.4541902201   -1.4885502034    0.7959111326
C        1.2897850817   -1.5792017282    2.9196899589
C        1.8032167051   -3.7168194421    3.8556884737
C        0.4469121463   -4.3332364550    4.0662677541
N        0.9416722026   -2.2231872123    1.8115809135
O        2.8479938763   -4.2992203474    3.7647627507
O        1.8084091547   -2.3034715965    3.9568127499
H        0.5837702684    1.6304547316    2.1214642243
H       -0.0872133336    0.4402337403   -0.0007631336
H        1.4901542200    0.2628037422    4.0325881403
H        0.1785905121   -2.0437391625   -0.0987350127
H        0.1341268287   -4.1350204591    5.0972524299
H        0.5061715185   -5.4093515872    3.9030454048
H       -0.2884962100   -3.8882600582    3.3944062416
17   
torsion grid (-60,)
C        0.6774283226    0.5208522810    2.0768128699
C        0.3025111610   -0.1427983141    0.8994406735
C        1.2737972213   -0.2014862661    3.1044076874
C        0.5505174903   -1.5104386019    0.8109782287
C        1.4753885985   -1.5749603396    2.8975049867
C        2.0593248396   -3.6713774811    3.9373916833
C        0.6742005519   -4.2558843075    4.0492649422
N        1.1336934478   -2.2235795796    1.7907062668
O        3.0921294281   -4.2782171064    4.0285813308
O        2.1099153527   -2.2645645696    3.8967607704
H        0.5041142299    1.5876659013    2.1907771049
H       -0.1646709340    0.3856033534    0.0744544141
H        1.5849743054    0.2568664009    4.0371703743
H        0.2805599100   -2.0689989240   -0.0833072534
H        0.1676085968   -3.8118251081    4.9121962581
H        0.7542475743   -5.3348940086    4.1803847089
H        0.0896348267   -4.0302945737    3.1563531189
17   
torsion grid (-45,)
C        0.6223144241    0.5307557928    2.1028252960
C        0.1827292444   -0.1578953793    0.9634075204
C        1.3019535922   -0.1654740609    3.0968861943
C        0.4536638121   -1.5217661803    0.8756145595
C        1.5185978076   -1.5364634621    2.8938052969
C        2.1218299631   -3.5841895922    4.0136195673
C        0.7230272771   -4.1556368641    3.9978705804
N        1.1185897588   -2.2081986402    1.8212659571
O        3.1170651625   -4.2100481145    4.2696997094
O        2.2392608751   -2.1978850495    3.8560743955
H        0.4340960341    1.5952524387    2.2143446111
H       -0.3508947140    0.3486004508    0.1653501533
H        1.6648221731    0.3114506190    4.0012300449
H        0.1351922489   -2.0978121141    0.0088205122
H       -0.0348265587   -3.4008966380    4.2151174412
H        0.6835104134   -4.9598105042    4.7349172531
H        0.5168437658   -4.5719746419    3.0097144371
17   
torsion grid (-30,)
C        0.5899668235    0.4985180677    2.1345386984
C        0.1272033996   -0.1656173785    0.9908335803
C        1.3292558335   -0.2103080992    3.0771269222
C        0.4352460375   -1.5174627925    0.8457467290
C        1.5774562475   -1.5655741502    2.8195395706
C        2.1638763943   -3.5760828871    4.0397231781
C        0.7505687390   -4.1039075347    3.9536364558
N        1.1571778560   -2.2134063493    1.7403783108
O        3.1072797656   -4.2055044166    4.4460032605
O        2.3689290948   -2.2337066645    3.7254175107
H        0.3744155603    1.5522796146    2.2897000044
H       -0.4522979295    0.3497764486    0.2313098516
H        1.7137832760    0.2470943636    3.9826361209
H        0.1004184662   -2.0735500000   -0.0279171529
H        0.0115140596   -3.3328429707    4.1834341555
H        0.6633111529   -4.9353983244    4.6540018917
H        0.5561353166   -4.4623269805    2.9409350705
17   
torsion grid (-15,)
C        0.5768054385    0.4800969821    2.1689301009
C        0.0990654324   -0.1698762825    1.0241809575
C        1.3522997583   -0.2347244014    3.0785382311
C        0.4293311624   -1.5128634913    0.8432090283
C        1.6171236224   -1.5791727701    2.7884668952
C        2.1678478256   -3.5271896317    4.1370615199
C        0.7627168133   -4.0535102757    3.9630449794
N        1.1847266653   -2.2128987112    1.7057302298
O        3.0538204655   -4.1133403785    4.7068135501
O        2.4483546833   -2.2516907635    3.6600902316
H        0.3463903432    1.5264202693    2.3506761270
H       -0.5086068478    0.3492504168    0.2895223667
H        1.7522148255    0.2116111145    3.9829265268
H        0.0839711213   -2.0565791399   -0.0341720616
H        0.0142744873   -3.2796242088    4.1531184109
H        0.6309336802   -4.8845866663    4.6559598093
H        0.6235552344   -4.4013009936    2.9376889768
17   
torsion grid (0,)
C        0.5812111693    0.4367460017    2.2022522044
C        0.0863742639   -0.1816530552    1.0480886518
C        1.3917242878   -0.2965621740    3.0667951328
C        0.4336078819   -1.5123638133    0.8118005302
C        1.6692133436   -1.6250374935    2.7244040870
C        2.1785242299   -3.5049646306    4.1805453661
C        0.7856024988   -4.0391174972    3.9457362842
N        1.2198655374   -2.2289291734    1.6314273443
O        3.0068889554   -4.0310492397    4.8813617057
O        2.5343430987   -2.3209543908    3.5488181498
H        0.3389970403    1.4722881573    2.4256503393
H       -0.5474534665    0.3521027551    0.3466841778
H        1.8088182588    0.1258515433    3.9749692211
H        0.0754820367   -2.0305660447   -0.0758627004
H        0.0280045427   -3.2633213086    4.0889500995
H        0.6187208853   -4.8575404911    4.6455345994
H        0.6951488194   -4.3973012239    2.9183359408
17   
torsion grid (15,)
C        1.2939032634    0.2687322197    1.7182465109
C        0.2387875003   -0.2284588785    0.9431976312
C        1.6213425782   -0.3763055890    2.9083899716
C       -0.4450694265   -1.3527674446    1.4054684614
C        0.8621565407   -1.4970369542    3.2681478323
C        1.2785442232   -3.4528746677    4.6530878934
C        1.4387314566   -4.3038993913    3.4154266642
N       -0.1482037882   -1.9795643963    2.5559566068
O        1.3054971506   -3.8735411957    5.7824516808
O        1.1498493359   -2.0786951060    4.4854546772
H        1.8538279474    1.1435266440    1.3986637947
H       -0.0497904458    0.2433538546    0.0090685508
H        2.4267523045   -0.0400017312    3.5528133020
H       -1.2747385704   -1.7705983823    0.8382278012
H        0.4669266037   -4.4497279519    2.9400087422
H        1.8466689400   -5.2663426440    3.7244415946
H        2.0971495761   -3.8314475082    2.6816458712
17   
torsion grid (30,)
C        1.2581003580    0.2955572992    1.6525212749
C        0.2002132161   -0.2385677602    0.9049397511
C        1.6315026956   -0.3280041122    2.8396150584
C       -0.4388963440   -1.3780722835    1.3912414161
C        0.9117576089   -1.4666238943    3.2271933361
C        1.1954823318   -3.4051797134    4.6542038328
C        1.4462039184   -4.3073149859    3.4681412502
N       -0.0983778743   -1.9854200933    2.5406197764
O        1.0450250621   -3.7874431352    5.7866711810
O        1.2467216144   -2.0292470381    4.4374357974
H        1.7853013723    1.1829360416    1.3125673390
H       -0.1229053453    0.2167641766   -0.0259716608
H        2.4423852738    0.0365329100    3.4613922284
H       -1.2679899876   -1.8259402915    0.8465866747
H        0.5040174833   -4.5014391814    2.9519678342
H        1.8515641614   -5.2469377962    3.8453719021
H        2.1346870755   -3.8563137835    2.7497228782
17   
torsion grid (45,)
C        1.2488586400    0.3208709428    1.6071032072
C        0.1949941335   -0.2309095853    0.8650290132
C        1.6872877449   -0.3333850822    2.7536360480
C       -0.3742514248   -1.4195164978    1.3171229919
C        1.0330719281   -1.5217907974    3.1105591141
C        1.2205582875   -3.4917448464    4.4873129229
C        1.5422800379   -4.4203491164    3.3393639645
N        0.0293883503   -2.0593584853    2.4285759269
O        0.9112017824   -3.8488170741    5.5940038392
O        1.4386573052   -2.1255362822    4.2742500934
H        1.7229950277    1.2468490845    1.2928246636
H       -0.1764705712    0.2484519420   -0.0351998045
H        2.4985491928    0.0430155963    3.3677530587
H       -1.1967411756   -1.8838182415    0.7762802388
H        0.6190581457   -4.6769750582    2.8158217687
H        1.9752716913   -5.3305457647    3.7582795662
H        2.2273974745   -3.9672687434    2.6206283662
17   
torsion grid (60,)
C        1.1958669018    0.3238382497    1.6507639557
C        0.0876705822   -0.1702992637    0.9472819554
C        1.6854197820   -0.3912566908    2.7382316272
C       -0.4806719104   -1.3670945707    1.3769556578
C        1.0262518407   -1.5825151240    3.0783687033
C        1.1335168191   -3.5976118451    4.3971322071
C        1.5648115372   -4.5504373851    3.3113213193
N       -0.0267740968   -2.0675350922    2.4313689325
O        0.6753469306   -3.9063007877    5.4639677804
O        1.4846491787   -2.2511541874    4.1827735657
H        1.6719649527    1.2539913040    1.3520219459
H       -0.3245140940    0.3588182871    0.0939219539
H        2.5387718338   -0.0593564856    3.3201261544
H       -1.3435263705   -1.7895451877    0.8654812689
H        1.1788877988   -4.2453161479    2.3386978120
H        1.2141435204   -5.5525647246    3.5575298359
H        2.6593180860   -4.5474338960    3.2651854598
17   
torsion grid (75,)
C        1.1576591833    0.3720167489    1.6693122073
C        0.0394921719   -0.1332896147    0.9884481800
C        1.7075712765   -0.3600650472    2.7151630655
C       -0.4760358309   -1.3603961187    1.3969181237
C        1.0970158900   -1.5825524573    3.0378226361
C        1.1110976844   -3.5820243120    4.3464292831
C        1.5808107173   -4.6269715198    3.3710019562
N        0.0386114804   -2.0808954473    2.4093749359
O        0.4939869795   -3.7722982452    5.3574811483
O        1.6230845468   -2.2872788544    4.0847792451
H        1.5938027059    1.3261730740    1.3854732153
H       -0.4188700971    0.4103818269    0.1684920910
H        2.5699747446   -0.0191035574    3.2781232756
H       -1.3431339029   -1.7937523780    0.9020319299
H        1.3600751449   -4.3248856046    2.3461047568
H        1.0996865872   -5.5786751295    3.5966280956
H        2.6666246844   -4.7308949005    3.4716681073
17   
torsion grid (90,)
C        1.1421710193    0.4444806216    1.6678871893
C        0.0367654729   -0.0435211188    0.9540262766
C        1.7215108279   -0.3459144238    2.6535439774
C       -0.4348643290   -1.3152359376    1.2676890166
C        1.1550946744   -1.6104553220    2.8807894968
C        1.0734588625   -3.6153849411    4.1582321414
C        1.5640063408   -4.7581824638    3.3170095527
N        0.1127907491   -2.0956749580    2.2162715030
O        0.3102138085   -3.6668224823    5.0814203320
O        1.7251662627   -2.3908111065    3.8475457035
H        1.5435734911    1.4325225256    1.4583185488
H       -0.4443803841    0.5464009209    0.1804085352
H        2.5726162665   -0.0187025944    3.2412790212
H       -1.2899127778   -1.7381100055    0.7435968866
H        1.3652615641   -4.5415446449    2.2643161763
H        1.0650058252   -5.6806372408    3.6142502390
H        2.6469602041   -4.8580861935    3.4419666374
17   
torsion grid (105,)
C        1.0895120675    0.5036999950    1.7287807827
C       -0.0175192415    0.0252601708    1.0125783458
C        1.7150159995   -0.3267373265    2.6525584854
C       -0.4430543266   -1.2781689549    1.2583214443
C        1.1949230952   -1.6198582897    2.8107060676
C        1.1057346219   -3.5919186705    4.1342225484
C        1.5949495972   -4.8505524536    3.4812694705
N        0.1537902914   -2.0982715275    2.1402446356
O        0.2575273971   -3.4877229056    4.9761636129
O        1.8293222573   -2.4548567833    3.6925781024
H        1.4548371727    1.5153116940    1.5725011510
H       -0.5353254118    0.6452574238    0.2876017129
H        2.5673991202   -0.0081228209    3.2431251468
H       -1.2976494337   -1.6946652643    0.7283408948
H        1.3415732874   -4.7997400130    2.4174991316
H        1.1245713436   -5.7214825429    3.9379879593
H        2.6840125484   -4.9150428043    3.5601481625
17   
torsion grid (120,)
C        1.0593839073    0.5610941275    1.7618450230
C       -0.0500975385    0.1211166374    1.0276390284
C        1.7079865506   -0.3295854262    2.6127602631
C       -0.4547517891   -1.2045738610    1.1792781648
C        1.2094313366   -1.6368928523    2.6760035597
C        1.1278368865   -3.5846920638    4.0394921706
C        1.6339086468   -4.9248449996    3.5926187485
N        0.1669984835   -2.0803865419    1.9853711837
O        0.2178744243   -3.3635149469    4.7922638138
O        1.8814310533   -2.5403600524    3.4671483612
H        1.4081020920    1.5870785091    1.6785661529
H       -0.5869927761    0.7859502805    0.3582582401
H        2.5630280218   -0.0442860882    3.2163948295
H       -1.3109875823   -1.5914342724    0.6297654830
H        1.3598325251   -5.0456145396    2.5390032381
H        1.1826523984   -5.7188614253    4.1877520089
H        2.7246651446   -4.9644560198    3.6556881546
17   
torsion grid (135,)
C        1.4123417530   -0.0784092103    1.4936273122
C        0.2397576052   -0.6087471539    0.9425992615
C        1.7039378599   -0.3261600544    2.8335956117
C       -0.5877523355   -1.3741995386    1.7654169954
C        0.7978368506   -1.1117343380    3.5527361287
C        0.0823554678   -1.3838722860    5.8059384852
C        0.1249966744   -2.5955714938    6.6931933263
N       -0.3140391905   -1.6333152322    3.0533361666
O       -0.7134597376   -0.4817888837    5.8502608798
O        1.1129091126   -1.4277942576    4.8619434755
H        2.0850145875    0.5262500028    0.8911394754
H       -0.0278585041   -0.4350268501   -0.0950921466
H        2.5894880020    0.0675398563    3.3212001536
H       -1.5088868622   -1.8068630846    1.3792693943
H       -0.2446554155   -3.4446967423    6.1083055419
H       -0.5097669793   -2.4460702341    7.5665898791
H        1.1509357802   -2.8240057316    6.9929379057
17   
torsion grid (150,)
C        1.3930544096   -0.0242847578    1.5325281967
C        0.2396391528   -0.5217254757    0.9165182788
C        1.6649991537   -0.3885431493    2.8508613341
C       -0.5891333373   -1.3712949928    1.6521738469
C        0.7601014929   -1.2469293682    3.4790653928
C        0.0926883711   -1.4603194531    5.7470970559
C        0.1689198919   -2.5322358002    6.7998748233
N       -0.3336814211   -1.7392444216    2.9167086037
O       -0.6848660062   -0.5393512070    5.7098274739
O        1.0523471564   -1.6788082197    4.7674604362
H        2.0657857889    0.6415363532    0.9985619947
H       -0.0134100451   -0.2606018362   -0.1065013550
H        2.5362242712   -0.0280341805    3.3875729522
H       -1.4953875579   -1.7822186849    1.2109824308
H       -0.2412380951   -3.4537461566    6.3739678471
H       -0.4151445507   -2.2392783731    7.6721000746
H        1.2066128796   -2.7317377128    7.0792230576
17   
torsion grid (165,)
C        1.3652541716    0.0153494286    1.6055396797
C        0.2478121625   -0.4476687818    0.9032099032
C        1.5965106898   -0.4639679542    2.8948510909
C       -0.5880142478   -1.3771629644    1.5258171463
C        0.6879038247   -1.3916447099    3.4061827151
C        0.0905106787   -1.5371885558    5.6895855575
C        0.2375288808   -2.4595574031    6.8708872068
N       -0.3729736308   -1.8515491813    2.7623412099
O       -0.6500879755   -0.5869267019    5.6061398554
O        0.9317426542   -1.9339318690    4.6685752951
H        2.0419840600    0.7396030483    1.1600788695
H        0.0271973748   -0.0998690902   -0.1014469628
H        2.4405501160   -0.1387847097    3.4940623263
H       -1.4671228172   -1.7640165655    1.0137237053
H       -0.2446892500   -3.4123123151    6.6296700885
H       -0.2443137847   -2.0181941310    7.7429768262
H        1.2912393729   -2.6649173475    7.0750048183
17   
torsion grid (180,)
C        1.2416057185    0.0432560661    1.8177418942
C        0.3044406913   -0.4493450771    0.9024242580
C        1.3143956306   -0.5282589778    3.0862496415
C       -0.5230398294   -1.4976006202    1.3054626387
C        0.4292707527   -1.5725242803    3.3700787858
C        0.3034693885   -1.5366442967    5.7561175790
C        0.4107134025   -2.4632466563    6.9397240132
N       -0.4667696690   -2.0556192125    2.5259315586
O        0.0875820417   -0.3468043947    5.7955921142
O        0.4889974169   -2.2454195855    4.5925160603
H        1.9064128209    0.8596161208    1.5486096615
H        0.2158849427   -0.0331615235   -0.0965611552
H        2.0169189323   -0.1784282661    3.8338055836
H       -1.2661712085   -1.9125750390    0.6270830887
H       -0.3536767166   -3.2422352905    6.8681167826
H        0.2810903936   -1.8946295949    7.8599204248
H        1.3851758613   -2.9600356186    6.9365944922
