38   
torsion grid (-165,)
C        2.1780118840   -0.0750790509   -0.0803216697
C        7.4381507203    1.8515905167   -0.0695555518
C        0.8649622288   -0.5592346033   -0.1162078210
C        8.7885211997    1.5198429555   -0.0747662913
C        8.2888764573   -0.8743859970   -0.1315828640
C        1.7272943540   -2.7223718181   -0.8032542879
C        6.9183208238   -0.5498783459   -0.2397426878
C        3.2660304793   -0.8901694730   -0.4089759493
C        3.0292706860   -2.2416510481   -0.7795257417
C        5.7256146851   -1.3355624029   -0.3722056982
C        6.5076669127    0.8114648446   -0.1649447377
C        9.2084839253    0.1668416920   -0.0157874559
C        0.6389817819   -1.8926323357   -0.4769162556
C        4.6530922439   -0.4628342344   -0.3592254919
C        4.1996434522   -3.1079523580   -1.2105309606
C        5.4983315704   -2.8187378827   -0.4328627156
C       11.0422081770   -1.3325701613    0.3108895312
C       -1.7300629475   -1.6886938635   -0.2160241584
N        5.1162023492    0.8383763684   -0.1987200584
O       10.5388868913   -0.0037944494    0.2964139461
O       -0.5951973952   -2.4843167211   -0.5402072381
H        2.3444348128    0.9520725730    0.2363347175
H        7.1278839463    2.8933532130   -0.0390706756
H        0.0467728728    0.1005030871    0.1487889954
H        9.5501171794    2.2892751977    0.0101237464
H        8.5971211556   -1.9134901942   -0.0966050528
H        1.5204184173   -3.7523243423   -1.0827676622
H        3.9307928848   -4.1658730266   -1.1305706629
H        4.3882966011   -2.9062258299   -2.2745042642
H        6.3363374494   -3.3267725746   -0.9225037683
H        5.4280796473   -3.2346050134    0.5830227377
H       12.1085408018   -1.2494326113    0.5278381412
H       10.9063374945   -1.8262324856   -0.6601942081
H       10.5602942334   -1.9342536621    1.0927653507
H       -2.5961112400   -2.3421985810   -0.3298868153
H       -1.8278927828   -0.8343941056   -0.8976319780
H       -1.6824192380   -1.3261604820    0.8184961037
H        4.5698998487    1.6650325105   -0.3946968275
38   
torsion grid (-150,)
C        2.2041373925   -0.0842751450   -0.0538450176
C        7.4655520263    1.8441330652   -0.1354411362
C        0.8903890383   -0.5675614536   -0.0701270147
C        8.8107530420    1.5042199771   -0.2271105501
C        8.3082574507   -0.8854041732   -0.2156071252
C        1.7360052412   -2.7149085038   -0.8262220219
C        6.9393249669   -0.5541087823   -0.3361914431
C        3.2838292629   -0.8915498770   -0.4265834964
C        3.0382758561   -2.2344815842   -0.8218930360
C        5.7435273664   -1.3363598931   -0.4597374177
C        6.5301552076    0.8056547790   -0.2212973603
C        9.2299273889    0.1540943410   -0.0896125219
C        0.6562285559   -1.8925205185   -0.4558841815
C        4.6716272609   -0.4648555421   -0.3999824243
C        4.1981627948   -3.0909177553   -1.2985951476
C        5.5144910131   -2.8179652272   -0.5451003658
C       11.0173796858   -1.3204796231    0.5035665660
C       -1.7058161879   -1.6949253414   -0.1350541031
N        5.1381891387    0.8328547230   -0.2174795681
O       10.4928203112    0.0003013700    0.4379355354
O       -0.5792712363   -2.4828757426   -0.5038881989
H        2.3787194960    0.9352161514    0.2825000143
H        7.1610781687    2.8873663044   -0.0984469558
H        0.0787064369    0.0856435465    0.2289641418
H        9.5758861974    2.2710642732   -0.1405010015
H        8.6070205831   -1.9246366183   -0.1296373785
H        1.5222244132   -3.7383807414   -1.1238105114
H        3.9310723438   -4.1504014649   -1.2352043864
H        4.3623412717   -2.8663366425   -2.3620450401
H        6.3411222298   -3.3154603068   -1.0639092301
H        5.4669474608   -3.2542392985    0.4635837348
H       12.0431113437   -1.2210091683    0.8627181521
H       11.0213239595   -1.8032845810   -0.4819788765
H       10.4471136692   -1.9398817139    1.2080913977
H       -2.5746285386   -2.3456897948   -0.2434575614
H       -1.8191992812   -0.8252568141   -0.7944628915
H       -1.6337232136   -1.3561143476    0.9060758186
H        4.5905060813    1.6612183062   -0.4034278180
38   
torsion grid (-135,)
C        2.2373046756   -0.1061974464   -0.0409288871
C        7.5034327444    1.8133672354   -0.1909373488
C        0.9224771102   -0.5868420903   -0.0430031788
C        8.8361239216    1.4522570681   -0.3543220170
C        8.3312292622   -0.9273995495   -0.2880332690
C        1.7464726266   -2.7190760410   -0.8616461129
C        6.9653173022   -0.5831508138   -0.4250938534
C        3.3069593609   -0.9081552988   -0.4521724519
C        3.0498108623   -2.2416740670   -0.8715669099
C        5.7643889384   -1.3579221766   -0.5440103466
C        6.5613660075    0.7770502902   -0.2730637892
C        9.2559967419    0.1099059133   -0.1425646685
C        0.6763080223   -1.9023394054   -0.4529941055
C        4.6961743341   -0.4858402240   -0.4432063267
C        4.1981176258   -3.0907859567   -1.3878051635
C        5.5291015318   -2.8368071953   -0.6536289706
C       10.9596948771   -1.3459226160    0.7015302049
C       -1.6783194114   -1.7062230132   -0.0807472630
N        5.1700074962    0.8065343557   -0.2389654394
O       10.4107605091   -0.0358786830    0.5951657016
O       -0.5617439675   -2.4882606777   -0.4901748174
H        2.4213183468    0.9051019253    0.3145905267
H        7.2105557678    2.8596210885   -0.1545704830
H        0.1185081862    0.0615292520    0.2858839961
H        9.6014092088    2.2210900171   -0.2711444724
H        8.6098197568   -1.9669683515   -0.1507463631
H        1.5243024847   -3.7354118546   -1.1770246480
H        3.9292839097   -4.1507001367   -1.3414505229
H        4.3431556786   -2.8445329044   -2.4492311038
H        6.3446996657   -3.3261255631   -1.1969809296
H        5.4983777292   -3.2922370272    0.3472782159
H       11.9250016598   -1.2305051085    1.1974981216
H       11.1079253009   -1.8041344002   -0.2840686821
H       10.3175629081   -1.9950597183    1.3107567851
H       -2.5509842072   -2.3523299975   -0.1860223240
H       -1.8027157254   -0.8215931409   -0.7178975749
H       -1.5840568474   -1.3912026393    0.9660696914
H        4.6229484521    1.6381809475   -0.4130094822
38   
torsion grid (-120,)
C        2.2620838029   -0.1150489633   -0.0021634989
C        7.5299353031    1.8049878142   -0.2622475559
C        0.9468432662   -0.5939031015    0.0220857260
C        8.8440494122    1.4273513834   -0.5074528061
C        8.3419451022   -0.9414009744   -0.3915488278
C        1.7439580502   -2.7047667407   -0.8765690459
C        6.9765951240   -0.5857825101   -0.5327753205
C        3.3183410823   -0.9062842366   -0.4658166615
C        3.0471837351   -2.2282615937   -0.9122721165
C        5.7717994071   -1.3551224589   -0.6419637205
C        6.5785388154    0.7709590848   -0.3330960442
C        9.2695170800    0.0921016838   -0.2238606087
C        0.6876874091   -1.8980452277   -0.4152158571
C        4.7076151499   -0.4853155655   -0.4865110366
C        4.1788846532   -3.0645140421   -1.4833174687
C        5.5309009588   -2.8305124618   -0.7815572234
C       10.8618358916   -1.2872319548    0.9194435014
C       -1.6542895902   -1.7107222598    0.0327853776
N        5.1900436146    0.8003362521   -0.2603198223
O       10.2923814591    0.0019993687    0.6975503772
O       -0.5517755882   -2.4820917299   -0.4312289362
H        2.4580349638    0.8863084475    0.3745019940
H        7.2471018939    2.8536727376   -0.2164946003
H        0.1538238673    0.0460542601    0.3916199752
H        9.6201743857    2.1873161431   -0.4201912907
H        8.6079397227   -1.9779955371   -0.2089144151
H        1.5110822668   -3.7123827754   -1.2116428762
H        3.9100825582   -4.1251060274   -1.4564947395
H        4.2937097361   -2.7911939892   -2.5418094125
H        6.3301243721   -3.3066915359   -1.3596692793
H        5.5276003429   -3.3104077027    0.2084070409
H       11.7221405529   -1.1301409172    1.5722475436
H       11.1937232023   -1.7502194620   -0.0176333906
H       10.1460677056   -1.9516010336    1.4200387595
H       -2.5307079461   -2.3531616176   -0.0634073996
H       -1.7966694975   -0.8090608787   -0.5761128549
H       -1.5279121736   -1.4241794070    1.0844060046
H        4.6399745694    1.6366958942   -0.3994500946
38   
torsion grid (-105,)
C        2.2969269123   -0.1325917883    0.0296000964
C        7.5674499528    1.7894920394   -0.3266335666
C        0.9812736202   -0.6092785483    0.0727852755
C        8.8576668326    1.3881624310   -0.6432387925
C        8.3622825739   -0.9678433906   -0.4861920960
C        1.7517472702   -2.6956066636   -0.8966226196
C        6.9978147277   -0.5979193584   -0.6286600406
C        3.3411131179   -0.9123893004   -0.4787945278
C        3.0554186464   -2.2220012712   -0.9516832887
C        5.7885433510   -1.3606746698   -0.7286819222
C        6.6065739441    0.7563859273   -0.3853181834
C        9.2921288137    0.0649731766   -0.2932461385
C        0.7066058085   -1.9010541133   -0.3908818755
C        4.7302540505   -0.4934630614   -0.5231222792
C        4.1707429036   -3.0462137491   -1.5704954422
C        5.5402174170   -2.8317734118   -0.8967617857
C       10.7286247018   -1.2508604078    1.1117950708
C       -1.6247687813   -1.7220060519    0.1151931290
N        5.2219553850    0.7852610705   -0.2765575038
O       10.1497322446    0.0143535841    0.7908732503
O       -0.5343746008   -2.4826700233   -0.3929538836
H        2.5036353327    0.8585366643    0.4269912685
H        7.2968568431    2.8412047031   -0.2811574667
H        0.1993355492    0.0231236776    0.4771627214
H        9.6387770772    2.1476863267   -0.5688627862
H        8.6080185992   -2.0021610354   -0.2631557595
H        1.5090484516   -3.6939890556   -1.2516236511
H        3.9001061135   -4.1066402186   -1.5628046097
H        4.2604087793   -2.7475512667   -2.6245587403
H        6.3241734256   -3.2958415953   -1.5047479894
H        5.5593404376   -3.3343083878    0.0817745913
H       11.4658597970   -1.0570276226    1.8927921703
H       11.2248210260   -1.7023405003    0.2447636664
H        9.9681302532   -1.9418112176    1.4970488032
H       -2.5042808841   -2.3607566696    0.0226666572
H       -1.7793388374   -0.8050684459   -0.4673662483
H       -1.4742595403   -1.4622783790    1.1706005628
H        4.6701693827    1.6254928979   -0.3828237975
38   
torsion grid (105,)
C        2.2347692114   -0.0700930745   -0.3026839039
C        7.4893204343    1.8224874088    0.2917079808
C        0.9276223957   -0.5502703569   -0.4476408841
C        8.7247122695    1.4111509097    0.7680942490
C        8.3223369136   -0.9262380279    0.3334601163
C        1.8251491096   -2.7921621068   -0.6930971057
C        6.9411008244   -0.5923002915    0.2901524501
C        3.3388732678   -0.9270788636   -0.3548314020
C        3.1225881466   -2.3168308469   -0.5610046119
C        5.7577825173   -1.3778360740    0.1033123423
C        6.5552633722    0.7753313865    0.1199723246
C        9.2437166096    0.1279208612    0.3813183675
C        0.7216823469   -1.9212872147   -0.6385678011
C        4.7166139463   -0.5064204394   -0.1700990385
C        4.3205113551   -3.2373841607   -0.7134831836
C        5.5099810657   -2.8563323167    0.1887266942
C       10.9321719142   -1.0373169452   -0.8701166399
C       -1.6553772249   -1.6741658183   -0.7364133599
N        5.2017253006    0.7947935287   -0.1718513416
O       10.2593094788    0.1833426942   -0.5582255916
O       -0.5061194411   -2.5124579518   -0.7830508311
H        2.3764802346    0.9939785496   -0.1257089754
H        7.1981233105    2.8696448143    0.3021307320
H        0.0968737909    0.1441881483   -0.3977023309
H        9.4874224338    2.1835103039    0.8857375419
H        8.6272184033   -1.9316798938    0.0564539314
H        1.6350774560   -3.8506392331   -0.8519316688
H        4.0201049186   -4.2747303529   -0.5359344062
H        4.6529621506   -3.1764181742   -1.7595548128
H        6.3960008482   -3.4244338989   -0.1158877887
H        5.2995197540   -3.1424111976    1.2293692571
H       11.7769199829   -0.7644049990   -1.5050215202
H       10.2723774508   -1.7182464741   -1.4227301474
H       11.2999470163   -1.5394964399    0.0322166899
H       -2.5132763504   -2.3344482678   -0.8710544035
H       -1.6406852091   -0.9294102371   -1.5421412540
H       -1.7391389896   -1.1630296224    0.2309238729
H        4.6411492704    1.6279248234   -0.2733279963
38   
torsion grid (120,)
C        2.2055256148   -0.0488464107   -0.2589570151
C        7.4702713888    1.8295323900    0.2452424196
C        0.8958045531   -0.5256139316   -0.3915066863
C        8.7370271822    1.4393657189    0.6583239282
C        8.3018359163   -0.9128095144    0.2638937420
C        1.7879914614   -2.7577685567   -0.7218773257
C        6.9238836224   -0.5806170289    0.2108055963
C        3.3084675005   -0.9028245280   -0.3605337473
C        3.0879654742   -2.2860279499   -0.6018956463
C        5.7368974840   -1.3629297966    0.0301501061
C        6.5352600295    0.7888028583    0.0852564692
C        9.2253094771    0.1345253610    0.3349564146
C        0.6852146929   -1.8902372580   -0.6200019508
C        4.6896536829   -0.4856238869   -0.1944783128
C        4.2826142403   -3.2020329359   -0.8006848351
C        5.4893672643   -2.8428992942    0.0878048191
C       10.9916011303   -1.1336066918   -0.6739039355
C       -1.6938492467   -1.6431550943   -0.6587545717
N        5.1702857265    0.8160579952   -0.1572118052
O       10.3797369655    0.1294028946   -0.4219997650
O       -0.5451450747   -2.4777097974   -0.7577506846
H        2.3517164495    1.0086465159   -0.0496578322
H        7.1770067055    2.8762939637    0.2532814263
H        0.0662620544    0.1663450863   -0.3025845217
H        9.5025721729    2.2085950377    0.7589282139
H        8.6116095636   -1.9288922130    0.0387615543
H        1.5948635367   -3.8114365366   -0.9067371491
H        3.9853289452   -4.2434805985   -0.6428863041
H        4.5950328994   -3.1152547052   -1.8510822098
H        6.3684829871   -3.4044053356   -0.2474061550
H        5.2979354536   -3.1534063010    1.1251869775
H       11.9390400154   -0.9176092644   -1.1706679198
H       10.3680704381   -1.7463509806   -1.3375774912
H       11.1834194384   -1.6844822193    0.2548503254
H       -2.5539259525   -2.3002169246   -0.7952342224
H       -1.6979115255   -0.8730609431   -1.4404159623
H       -1.7563702966   -1.1633206048    0.3260488787
H        4.6235893542    1.6486357899   -0.3191845776
38   
torsion grid (135,)
C        2.1882974498   -0.0499882063   -0.2226243723
C        7.4491911329    1.8466260265    0.1743183453
C        0.8781183658   -0.5308437664   -0.3328620306
C        8.7463601146    1.4803622312    0.5129543041
C        8.2944870529   -0.8863493668    0.1687371575
C        1.7737788521   -2.7505325670   -0.7416900189
C        6.9177247817   -0.5623074615    0.1100383173
C        3.2921045638   -0.8953429436   -0.3743112248
C        3.0737060360   -2.2737675331   -0.6436842025
C        5.7319997486   -1.3491743879   -0.0609048561
C        6.5188490302    0.8057086115    0.0282346083
C        9.2145993360    0.1595435629    0.2576095260
C        0.6705802502   -1.8908684750   -0.5898758980
C        4.6746771324   -0.4727815305   -0.2342783454
C        4.2677196380   -3.1774867419   -0.8951767179
C        5.4949198066   -2.8317396556   -0.0299410644
C       11.0560226735   -1.1925719755   -0.4560299096
C       -1.7095305907   -1.6563694095   -0.5599642067
N        5.1462566943    0.8313631602   -0.1754753267
O       10.4728403070    0.0976103741   -0.3021335640
O       -0.5597206764   -2.4816603620   -0.7107418944
H        2.3348098416    1.0027806310    0.0089891151
H        7.1475446576    2.8911477714    0.1835848362
H        0.0471323415    0.1533700885   -0.2053910085
H        9.5092289674    2.2508903908    0.6040582225
H        8.6124258984   -1.9086169518   -0.0098230566
H        1.5810667272   -3.8004503657   -0.9472889404
H        3.9805234317   -4.2242277009   -0.7546843932
H        4.5523981372   -3.0637278537   -1.9508460989
H        6.3677988228   -3.3801271280   -0.4011716440
H        5.3319019100   -3.1671710471    1.0046073625
H       12.0804553486   -1.0244629889   -0.7927932097
H       10.5200386553   -1.7805465106   -1.2124736854
H       11.0695488046   -1.7467528222    0.4907084902
H       -2.5696228791   -2.3146064328   -0.6905031817
H       -1.7381828303   -0.8665942590   -1.3211877515
H       -1.7481230816   -1.2022718750    0.4381692624
H        4.5924808049    1.6635036537   -0.3136519268
38   
torsion grid (150,)
C        2.1932623599   -0.0529921448   -0.1946126608
C        7.4415893214    1.8862647038    0.1010122589
C        0.8854845943   -0.5437070637   -0.2883754211
C        8.7646551886    1.5436148771    0.3535999984
C        8.3113130050   -0.8386516956    0.0733920956
C        1.7901912918   -2.7438361810   -0.7740235590
C        6.9336051016   -0.5264196995    0.0084389212
C        3.3002032697   -0.8843044622   -0.3935433190
C        3.0877497934   -2.2574755189   -0.6925803339
C        5.7512984089   -1.3211579721   -0.1527021884
C        6.5208400548    0.8380843422   -0.0302500822
C        9.2227793802    0.2124479951    0.1703721618
C        0.6832695211   -1.8983992550   -0.5762122023
C        4.6817368524   -0.4518606391   -0.2755873540
C        4.2836948619   -3.1441693917   -0.9914779568
C        5.5278703064   -2.8061626380   -0.1474024153
C       11.0935549459   -1.2125856018   -0.2747663160
C       -1.6975577969   -1.6860257463   -0.4880602380
N        5.1406070680    0.8554002974   -0.1872370250
O       10.5493947058    0.0982357838   -0.1838174951
O       -0.5444549119   -2.4967836877   -0.6854146196
H        2.3365734408    0.9942884037    0.0623172167
H        7.1267134219    2.9267000095    0.1197926924
H        0.0516609803    0.1291423190   -0.1243475681
H        9.5169704616    2.3224448657    0.4454442398
H        8.6338148818   -1.8665224027   -0.0523963959
H        1.6020417339   -3.7900530611   -1.0015730610
H        4.0089605334   -4.1963200789   -0.8673493996
H        4.5428476253   -3.0049770460   -2.0506509873
H        6.3962909290   -3.3383717171   -0.5511600792
H        5.3917338127   -3.1654524222    0.8830732157
H       12.1588684613   -1.0843911383   -0.4741380753
H       10.6381427055   -1.7762293243   -1.0995493839
H       10.9624031071   -1.7709101613    0.6609175118
H       -2.5547566191   -2.3483616910   -0.6168816099
H       -1.7496252843   -0.8771152759   -1.2276399592
H       -1.7178982221   -1.2582766761    0.5221732268
H        4.5847495104    1.6824308319   -0.3469168190
38   
torsion grid (165,)
C        2.1655399165   -0.0446428466   -0.1518063757
C        7.4148635731    1.8994225497    0.0506880775
C        0.8567077152   -0.5357259842   -0.2269739624
C        8.7543939214    1.5693848215    0.2217332700
C        8.2853029730   -0.8221751742    0.0129442231
C        1.7538311885   -2.7226320739   -0.7798096103
C        6.9095950851   -0.5101998850   -0.0676670006
C        3.2691245522   -0.8689653020   -0.3938180145
C        3.0522916053   -2.2358829397   -0.7169698711
C        5.7255273500   -1.3046248816   -0.2194368339
C        6.4939504082    0.8524838038   -0.0689509762
C        9.1970684656    0.2267182838    0.1175143151
C        0.6498899429   -1.8842532176   -0.5395746792
C        4.6520278154   -0.4356117335   -0.2978973368
C        4.2428405736   -3.1141720867   -1.0592133928
C        5.5044716627   -2.7899239093   -0.2357738778
C       11.0728798629   -1.2443248680   -0.0738969375
C       -1.7289122938   -1.6789472531   -0.3944293671
N        5.1083618375    0.8711899873   -0.1841796091
O       10.5601041491    0.0791192883   -0.0146446055
O       -0.5789857965   -2.4827787527   -0.6341883158
H        2.3137203955    0.9966214464    0.1257338465
H        7.0972770520    2.9391166071    0.0713315582
H        0.0258174339    0.1316842701   -0.0293391184
H        9.5079547460    2.3464069872    0.3093681127
H        8.6078303327   -1.8549784084   -0.0585822819
H        1.5623128330   -3.7642580391   -1.0248773055
H        3.9725792299   -4.1690895798   -0.9496297547
H        4.4789065427   -2.9539280899   -2.1207944822
H        6.3646722536   -3.3129411638   -0.6680150467
H        5.3905821225   -3.1682539773    0.7906465933
H       12.1579379584   -1.1451058589   -0.1360535162
H       10.7072079954   -1.7758141176   -0.9624220759
H       10.8114716576   -1.8193255125    0.8240574611
H       -2.5875669283   -2.3402467875   -0.5187906242
H       -1.7984185148   -0.8544918049   -1.1151578265
H       -1.7279784372   -1.2730196823    0.6249653602
H        4.5557393834    1.6965949254   -0.3638380436
38   
torsion grid (180,)
C        2.1559125761   -0.0732720941   -0.1037195171
C        7.4171015474    1.8463903520   -0.0040007817
C        0.8431235374   -0.5565036530   -0.1601989009
C        8.7650339618    1.5152156721    0.0757060798
C        8.2704718892   -0.8786033652   -0.0530226782
C        1.7173981192   -2.7346531824   -0.7821547898
C        6.8981082879   -0.5574566690   -0.1447018087
C        3.2497765025   -0.8962995011   -0.3898229656
C        3.0191202019   -2.2548921937   -0.7380070356
C        5.7071366862   -1.3444809325   -0.2846899260
C        6.4886364711    0.8055669483   -0.1080072174
C        9.1896375040    0.1634437728    0.0533358075
C        0.6233444024   -1.8966638158   -0.4984409167
C        4.6362246710   -0.4701429080   -0.3168333718
C        4.1976893494   -3.1309778924   -1.1246125462
C        5.4789398451   -2.8282672173   -0.3234488288
C       11.0480944264   -1.3397603586    0.1244213621
C       -1.7504120004   -1.6836754434   -0.2970977249
N        5.0988351982    0.8331771248   -0.1776472448
O       10.5533245208   -0.0085021933    0.1401818808
O       -0.6100936484   -2.4877462923   -0.5785150269
H        2.3162402825    0.9602131106    0.1950443444
H        7.1046759682    2.8876215844    0.0210698588
H        0.0201949137    0.1097391596    0.0718373708
H        9.5248624903    2.2862927399    0.1581784295
H        8.5838833636   -1.9164218505   -0.0707654564
H        1.5151481443   -3.7698035302   -1.0454127602
H        3.9252152012   -4.1867446228   -1.0297771772
H        4.4107829852   -2.9507264924   -2.1878307045
H        6.3268983991   -3.3463474381   -0.7847012929
H        5.3856858943   -3.2255129688    0.6979651562
H       12.1336117195   -1.2591908685    0.2030724881
H       10.7898474013   -1.8537811731   -0.8108478590
H       10.6654663181   -1.9211696382    0.9736001490
H       -2.6149595088   -2.3379100962   -0.4178387423
H       -1.8304302975   -0.8432633094   -0.9980253769
H       -1.7259761643   -1.3002126748    0.7306687769
H        4.5548818318    1.6588852616   -0.3828713757
