13   
torsion grid (-165,)
C       -1.0803757133    0.5730649818   -2.5466873595
C        0.2002125172    0.3845072777    1.1316472316
N       -0.4476944615   -1.6526906423   -0.4710345459
O        1.6745008478   -0.2097974374   -1.0627890493
O       -0.6067259694    0.8953610442   -1.2249126929
S        0.3118066613   -0.3154898109   -0.5111203609
H       -1.7168002960    1.4093145675   -2.8371789437
H       -1.6677715963   -0.3506559627   -2.5250482612
H       -0.2442001394    0.4832961457   -3.2470852150
H        0.5067933892    1.4284983722    1.0737248321
H       -0.8288091304    0.2856425647    1.4743170093
H        0.8794643323   -0.1929344811    1.7590696408
H       -0.0806324081   -2.2947418524   -1.1748857705
13   
torsion grid (-150,)
C       -1.1115529923    0.5572347274   -2.5168154962
C        0.1656868399    0.3791995978    1.1192973113
N       -0.4071785013   -1.6164633282   -0.5531321460
O        1.7915584117   -0.2151265027   -0.9599059925
O       -0.4410282491    0.9398372040   -1.3007933076
S        0.3883531036   -0.2993889625   -0.5221126095
H       -1.7004106348    1.4288400883   -2.8047496311
H       -1.7678522502   -0.2997040039   -2.3376195265
H       -0.3874887772    0.3264256295   -3.3049846431
H        0.4914169128    1.4189694790    1.0986372772
H       -0.8878495905    0.2939993920    1.3813798558
H        0.7868948442   -0.2158659533    1.7891807349
H       -0.0207810837   -2.2545826005   -1.2503653120
13   
torsion grid (-135,)
C       -1.1387512823    0.5526334216   -2.4769240595
C        0.1260125214    0.3753447366    1.0920726884
N       -0.3464906246   -1.6052990362   -0.6119991203
O        1.8935448909   -0.2195057497   -0.8590900736
O       -0.2793568138    0.9492863125   -1.3911946222
S        0.4616626763   -0.2982147109   -0.5327903925
H       -1.6766979456    1.4588120698   -2.7590804935
H       -1.8399851999   -0.2220399353   -2.1540977074
H       -0.5501375174    0.1960664920   -3.3285466602
H        0.4751249098    1.4077240119    1.1011292702
H       -0.9465345977    0.3144344626    1.2707387117
H        0.6791807250   -0.2343976969    1.8070344955
H        0.0421962908   -2.2314696112   -1.3192355217
13   
torsion grid (-120,)
C       -1.1633227159    0.5626598494   -2.4216352993
C        0.0784231234    0.3636524941    1.0523030477
N       -0.2679743556   -1.6154401395   -0.6729033937
O        1.9758919305   -0.2068303113   -0.7679258677
O       -0.1337280270    0.9333672693   -1.4839404432
S        0.5265890186   -0.3045273102   -0.5484843194
H       -1.5869367575    1.5085027151   -2.7630583412
H       -1.9326212959   -0.0510176833   -1.9455431569
H       -0.7373999610    0.0235402727   -3.2735562557
H        0.4343612941    1.3930724832    1.0875417097
H       -1.0046480275    0.3119650228    1.1571009849
H        0.5738372685   -0.2512339240    1.8044044323
H        0.1372965385   -2.2243359715   -1.3862865828
13   
torsion grid (-105,)
C       -1.1966650609    0.5835233694   -2.3419111691
C        0.0201903997    0.3336882394    0.9989021807
N       -0.1430312220   -1.6419480431   -0.7529891736
O        2.0451859544   -0.1405008470   -0.6981464980
O       -0.0258774752    0.9109689931   -1.5680740447
S        0.5915815267   -0.3033417501   -0.5763640249
H       -1.4245124207    1.4932338435   -2.8996417042
H       -2.0409008472    0.3136207506   -1.7002369103
H       -0.9947080503   -0.2353316922   -3.0370944710
H        0.3750530514    1.3608840126    1.0783618517
H       -1.0682138975    0.2842878275    1.0246157933
H        0.4542514260   -0.2961368792    1.7760885145
H        0.3074146488   -2.2195730576   -1.4654938297
13   
torsion grid (-90,)
C       -1.2157849082    0.6198122167   -2.2616227347
C       -0.0438263643    0.3030566932    0.9321729020
N       -0.0264924174   -1.6816248617   -0.8116731362
O        2.0954130708   -0.0940342416   -0.6380102832
O        0.0700372352    0.8624734479   -1.6582076471
S        0.6458049171   -0.3155043321   -0.6039056701
H       -1.3330896827    1.4097220039   -3.0048854469
H       -2.0214473883    0.6860716622   -1.5217889610
H       -1.2472072088   -0.3598328063   -2.7436485881
H        0.2866637578    1.3361626192    1.0367728365
H       -1.1307246197    0.2320689544    0.8926068024
H        0.3510852062   -0.3208381977    1.7344752149
H        0.4693364355   -2.2341583913   -1.5142687735
13   
torsion grid (-75,)
C       -1.2249699420    0.6667963021   -2.1825473252
C       -0.1078446890    0.2679331620    0.8612484730
N        0.0822857593   -1.7266335648   -0.8430080288
O        2.1296531713   -0.0522639719   -0.5981356663
O        0.1437296393    0.7949778123   -1.7507928296
S        0.6909291700   -0.3316725912   -0.6303404995
H       -1.3037225703    1.2771281382   -3.0832825645
H       -1.9126506612    1.0510023457   -1.4204355348
H       -1.4674249224   -0.3747118536   -2.4099321818
H        0.1507696375    1.3217050477    0.9650833927
H       -1.1844325536    0.1222660252    0.7796361902
H        0.2922975506   -0.3167792455    1.6899579118
H        0.6111484436   -2.2563728393   -1.5394348223
13   
torsion grid (-60,)
C       -1.2211878530    0.7198819494   -2.1105174231
C       -0.1706850125    0.2375916893    0.7872567608
N        0.1740574738   -1.7778601659   -0.8463899872
O        2.1489768611   -0.0226177179   -0.5719450355
O        0.1944872861    0.7028261644   -1.8466305658
S        0.7239878335   -0.3556496680   -0.6540727832
H       -1.3330661937    1.2048217708   -3.0813354641
H       -1.7513951115    1.3042630078   -1.3506604311
H       -1.6227666477   -0.2973939704   -2.1570725352
H       -0.0001537839    1.3117589148    0.8652209608
H       -1.2278590214   -0.0010712865    0.6837844639
H        0.2520937482   -0.2844098721    1.6460861852
H        0.7332784542   -2.2987660487   -1.5257076308
13   
torsion grid (-45,)
C       -1.2198200805    0.7720881718   -2.0623559752
C       -0.2226283572    0.2075978655    0.7259022279
N        0.2730097559   -1.8347510065   -0.8110607092
O        2.1501164625    0.0289257373   -0.5687304248
O        0.2002835665    0.5825021412   -1.9406542980
S        0.7456996283   -0.3795054108   -0.6721438203
H       -1.3750799244    1.1845879314   -3.0604024812
H       -1.5860141288    1.4853583241   -1.3167289532
H       -1.7553086248   -0.1802695280   -1.9781364371
H       -0.1127220482    1.2909160895    0.7871446227
H       -1.2613097269   -0.0936537696    0.6063188793
H        0.2102408583   -0.2700316617    1.6052910169
H        0.8533006525   -2.3503901172   -1.4764271331
13   
torsion grid (-30,)
C       -1.2275258103    0.8270139588   -2.0401521709
C       -0.2593491535    0.1715148297    0.6857521202
N        0.3793272002   -1.8933043516   -0.7523990762
O        2.1283456256    0.0971193606   -0.5969017410
O        0.1552359041    0.4422702018   -2.0183601788
S        0.7527679202   -0.4051331086   -0.6869983329
H       -1.4033172973    1.2090294444   -3.0469643543
H       -1.4317658016    1.6217403685   -1.3156178284
H       -1.8863923619   -0.0313327327   -1.8641111808
H       -0.1955300518    1.2588268200    0.7371630153
H       -1.2828943845   -0.1755315197    0.5610961119
H        0.1855953764   -0.2761567147    1.5747132569
H        0.9852708678   -2.4026817897   -1.3992031263
13   
torsion grid (-15,)
C       -1.0984550767    0.9495030588   -2.0837859097
C        0.5411228875    0.5271755786    0.3352600999
N       -0.7819598612   -1.7132292916    0.2715142429
O        1.4396622457   -1.5344126475   -1.1645004642
O       -0.5709626007   -0.3821086311   -2.0225864598
S        0.2007835389   -0.9543506826   -0.6299778598
H       -1.5951155261    1.0137624250   -3.0533400691
H       -0.3032584575    1.7010198994   -2.0412846015
H       -1.8377177834    1.1306691706   -1.2948009261
H        1.1589205805    1.2019487939   -0.2570263744
H       -0.3931367787    0.9904552830    0.6465148061
H        1.0949211827    0.1727501281    1.2047881982
H       -0.9550363178   -2.6598083175   -0.0727581678
13   
torsion grid (0,)
C       -1.0572204006    0.9815908472   -2.1159549092
C        0.4809482216    0.5172529087    0.3623224949
N       -0.7317205663   -1.8005717989    0.3013229624
O        1.4125707592   -1.4524376909   -1.2139656266
O       -0.7182774156   -0.4008355368   -1.9489882239
S        0.1629672979   -0.9599128484   -0.6159316874
H       -1.6395406607    1.0201211034   -3.0381292173
H       -0.1652392192    1.6067015970   -2.2339461353
H       -1.6762002309    1.3519773348   -1.2911711298
H        1.0335718165    1.2337699152   -0.2441302570
H       -0.4576724066    0.9274827147    0.7314762590
H        1.0956029348    0.1725773327    1.1940805026
H       -0.8400220969   -2.7543411118   -0.0489685176
13   
torsion grid (15,)
C       -1.0168185225    0.9945206756   -2.1447009146
C        0.4265341239    0.5120614936    0.3949830306
N       -0.6848181999   -1.8720393948    0.3157978034
O        1.3763527208   -1.3510869006   -1.2674964199
O       -0.8619520207   -0.4029806811   -1.8608506407
S        0.1237694764   -0.9539158558   -0.6031571466
H       -1.6786037705    1.0353856329   -3.0114285943
H       -0.0611562899    1.4634227870   -2.4056425400
H       -1.4889899733    1.5262033748   -1.3118357369
H        0.9198479873    1.2628627189   -0.2205287170
H       -0.5087989361    0.8762432891    0.8183660429
H        1.0960280103    0.1757700499    1.1869604321
H       -0.7416265725   -2.8230724226   -0.0524500841
13   
torsion grid (30,)
C       -0.9888766594    0.9923522417   -2.1665625234
C        0.3912775579    0.5091232605    0.4311262857
N       -0.6250791167   -1.9265983155    0.3254228086
O        1.3181202501   -1.2431126625   -1.3479058574
O       -1.0056999090   -0.3828733988   -1.7517466301
S        0.0885318273   -0.9369305644   -0.5951973550
H       -1.6866101767    1.0471163763   -3.0037293031
H        0.0056266451    1.2970207813   -2.5118581136
H       -1.3375697821    1.6529934423   -1.3661940751
H        0.8551780352    1.2816746417   -0.1797263207
H       -0.5424251285    0.8462407195    0.8811196292
H        1.0842513473    0.1705885896    1.2015580118
H       -0.6569568572   -2.8642203447   -0.0782900422
13   
torsion grid (45,)
C       -0.9660363457    0.9770784027   -2.1999112246
C        0.3687483693    0.5044014365    0.4865343022
N       -0.5661289982   -1.9635731581    0.3227605877
O        1.2504594088   -1.1239118129   -1.4263899100
O       -1.1261823712   -0.3348047034   -1.6286951090
S        0.0593463051   -0.9064831654   -0.5844557668
H       -1.6911430173    1.0303690667   -3.0134534327
H        0.0413048941    1.1124402067   -2.6079838076
H       -1.1933547332    1.7535069649   -1.4623677085
H        0.7867379874    1.3103639361   -0.1143452975
H       -0.5586006171    0.7986183546    0.9780744457
H        1.0998941541    0.1629158261    1.2194745910
H       -0.6052770029   -2.8775465877   -0.1312251552
13   
torsion grid (60,)
C       -0.9489868849    0.9500342250   -2.2594991343
C        0.3526457736    0.4951038910    0.5703561767
N       -0.5139655529   -1.9817813368    0.3020274146
O        1.2058193448   -0.9938583129   -1.4732698197
O       -1.1996921882   -0.2592826424   -1.5138524426
S        0.0480174857   -0.8609206507   -0.5681318045
H       -1.7495164408    1.0080553713   -2.9984845810
H        0.0181252126    0.9012528984   -2.7682531159
H       -0.9980982323    1.8257796495   -1.6038222697
H        0.7108937845    1.3491976054   -0.0028059376
H       -0.5683475814    0.7222178380    1.1067571454
H        1.1259011262    0.1503344255    1.2570611751
H       -0.5830278136   -2.8627581945   -0.2100662918
13   
torsion grid (75,)
C       -0.9352656839    0.9120758340   -2.3378542251
C        0.3329176892    0.4831565924    0.6723388621
N       -0.4728374573   -1.9853506977    0.2658112859
O        1.1871279644   -0.8559779803   -1.4838015139
O       -1.2325938471   -0.1619873866   -1.4193732730
S        0.0481256358   -0.8029624959   -0.5469960768
H       -1.8383046092    1.0361716291   -2.9373317238
H       -0.0894816065    0.6505172098   -2.9776400411
H       -0.7284552550    1.8421883270   -1.7967926641
H        0.5993523451    1.3991667153    0.1453399273
H       -0.5730255299    0.6061612486    1.2642893883
H        1.1640616836    0.1489240524    1.2937274753
H       -0.5618532956   -2.8287082811   -0.3037009064
13   
torsion grid (90,)
C       -0.9311526885    0.8708467874   -2.4135357771
C        0.3167771964    0.4681422507    0.7745369864
N       -0.4388631833   -1.9778782407    0.2167959706
O        1.1877473102   -0.7212386228   -1.4752345448
O       -1.2372057889   -0.0434601117   -1.3369696302
S        0.0575120056   -0.7392722863   -0.5263649032
H       -1.8940145298    1.0965257426   -2.8745310939
H       -0.2591671481    0.4066203937   -3.1372805661
H       -0.4819923437    1.7938741645   -2.0302314188
H        0.5316489864    1.4278275893    0.3036770516
H       -0.5855169605    0.5125154810    1.3824205240
H        1.1706771901    0.1298576529    1.3620306521
H       -0.5366820126   -2.7809860336   -0.4072967357
13   
torsion grid (105,)
C       -0.9455577033    0.8260088260   -2.4793278916
C        0.3098173626    0.4514086269    0.8710134505
N       -0.4031500428   -1.9609127618    0.1552714255
O        1.2048858984   -0.5818804764   -1.4552814021
O       -1.2201590364    0.0899379495   -1.2659480720
S        0.0759922350   -0.6697981878   -0.5079292586
H       -1.9242166882    1.1593238009   -2.8287727803
H       -0.4722288094    0.1867153065   -3.2265002471
H       -0.3051388737    1.6913066512   -2.2814397592
H        0.5349052445    1.4362974195    0.4609662525
H       -0.6070029772    0.4633692929    1.4582804637
H        1.1480022393    0.0741005668    1.4573772405
H       -0.4963808157   -2.7225022475   -0.5196929070
13   
torsion grid (120,)
C       -0.9643570972    0.7751509553   -2.5317539401
C        0.2918358379    0.4390229096    0.9558837347
N       -0.3661593052   -1.9370078210    0.0788717485
O        1.2426766856   -0.4427214261   -1.4171049887
O       -1.1805550114    0.2294102753   -1.2111730605
S        0.1012721845   -0.5971474079   -0.4927512337
H       -1.9002520923    1.2799264563   -2.7775593218
H       -0.7660743169   -0.0176116868   -3.2572115097
H       -0.1355116967    1.4872946110   -2.5362141287
H        0.5397877253    1.4421456754    0.6093336773
H       -0.6463388210    0.4287607854    1.5086983572
H        1.1020878709    0.0163754708    1.5502891028
H       -0.4186439302   -2.6602240304   -0.6412919226
13   
torsion grid (135,)
C       -0.9860434983    0.7259662916   -2.5652372339
C        0.2736056596    0.4275935066    1.0221694395
N       -0.3501758104   -1.9037931505   -0.0095366275
O        1.2960294567   -0.3331041846   -1.3672545240
O       -1.1181957967    0.3797767557   -1.1697235741
S        0.1284848882   -0.5283553277   -0.4838558093
H       -1.8336589991    1.3818850838   -2.7704817185
H       -1.0487307129   -0.1641500806   -3.1988256648
H       -0.0440044379    1.2452665317   -2.7535819017
H        0.5355060990    1.4458434213    0.7370180555
H       -0.6816979536    0.3927458494    1.5441310827
H        1.0612648393   -0.0340184362    1.6176711054
H       -0.3326157008   -2.5922814937   -0.7644761147
13   
torsion grid (150,)
C       -1.0107574647    0.6787216404   -2.5776857107
C        0.2614039203    0.4148075395    1.0720432286
N       -0.3625215952   -1.8557061228   -0.1148842570
O        1.3591790546   -0.2524831915   -1.3168799945
O       -1.0338106495    0.5356337161   -1.1424218828
S        0.1574577376   -0.4610824642   -0.4838262716
H       -1.7844870376    1.4146598439   -2.8006258052
H       -1.2568262365   -0.2683977484   -3.0700615742
H       -0.0346891403    1.0335248425   -2.9160060289
H        0.5603889344    1.4384319464    0.8506247305
H       -0.7148780868    0.3789826367    1.5537848716
H        1.0113504229   -0.0998768310    1.6725107024
H       -0.2520418259   -2.5138410407   -0.8885554934
13   
torsion grid (165,)
C       -1.0292151716    0.6363978849   -2.5771317274
C        0.2484216614    0.4029584762    1.1068848516
N       -0.4056736025   -1.7902529383   -0.2291972512
O        1.4423523789   -0.2149218093   -1.2548578220
O       -0.9146463765    0.6866232838   -1.1408789008
S        0.1929456196   -0.4003090861   -0.4899216747
H       -1.7589108331    1.4049805429   -2.8338808317
H       -1.4021169938   -0.3409859753   -2.9036779621
H       -0.0667806603    0.8530956697   -3.0474211704
H        0.5546669702    1.4357492843    0.9465236765
H       -0.7423024933    0.3433597065    1.5557584863
H        0.9793814571   -0.1427380434    1.7033096794
H       -0.1983539229   -2.4305822292   -0.9974928388
13   
torsion grid (180,)
C       -1.0525557518    0.5990400194   -2.5661939556
C        0.2284635659    0.3921236709    1.1280308095
N       -0.4436405574   -1.7162936693   -0.3579695858
O        1.5524612931   -0.2009558529   -1.1650955048
O       -0.7703200622    0.8108739018   -1.1691910900
S        0.2439210885   -0.3486498889   -0.4996646327
H       -1.7340024317    1.4016105216   -2.8492421046
H       -1.5454625027   -0.3680370015   -2.7152961589
H       -0.1350150177    0.6598306325   -3.1583579888
H        0.5364852869    1.4318797547    1.0244706713
H       -0.7794712768    0.3093002602    1.5324602528
H        0.9383940344   -0.1747121816    1.7303483769
H       -0.1394896352   -2.3526354001   -1.0962825745
