16   
torsion grid (-165,)
C       -0.5398745242   -0.8826215889    1.8559831638
C       -0.4367546314   -0.8538557185    0.4906512249
C       -0.5836387208   -2.1003753293    2.5993005810
C       -0.3997801214   -2.0845644796   -0.2748718473
C       -0.4707948500   -3.2732614954    1.8909625127
C       -0.6355572575   -4.6997906422    3.7851232758
N       -0.2879518597   -3.2404743208    0.5384630436
O       -0.4897818829   -2.2097544910   -1.4969542081
O       -0.4877288199   -4.5369714926    2.3695996517
H       -0.6119345935    0.0541647797    2.4039510135
H       -0.4488939972    0.0730217884   -0.0713912749
H       -0.7030455961   -2.0965230504    3.6737504432
H       -0.6225581794   -5.7753237444    3.9594989917
H       -1.5876079033   -4.2798275300    4.1260803531
H        0.1956405867   -4.2265580834    4.3181805662
H       -0.2897817393   -4.1254679562    0.0385938049
16   
torsion grid (-150,)
C       -0.5191627183   -0.8771373320    1.8626459137
C       -0.4125056180   -0.8454080152    0.4974076268
C       -0.5819829213   -2.0964773741    2.6049753924
C       -0.4254007417   -2.0844499158   -0.2577925031
C       -0.4362943576   -3.2664658817    1.8983734261
C       -0.6561911253   -4.7009560900    3.7797297067
N       -0.1737934439   -3.2229870870    0.5556798282
O       -0.7035997162   -2.2356090287   -1.4467116095
O       -0.4611766042   -4.5319165934    2.3704849403
H       -0.5995595401    0.0590575192    2.4103776270
H       -0.4529348491    0.0797459721   -0.0663761259
H       -0.7419776050   -2.0936386885    3.6742096310
H       -0.6451760311   -5.7770811789    3.9505658767
H       -1.6207886745   -4.2858288214    4.0898803846
H        0.1546978657   -4.2262264452    4.3419692417
H       -0.2204582966   -4.1066642486    0.0536513984
16   
torsion grid (-135,)
C       -0.4887946646   -0.8694028274    1.8570270043
C       -0.3734818156   -0.8338046295    0.4920331067
C       -0.5768584801   -2.0924678124    2.5961111963
C       -0.4382766220   -2.0843293839   -0.2459745783
C       -0.4006455395   -3.2600810516    1.8930306037
C       -0.6692138223   -4.7054140289    3.7568724917
N       -0.0627008674   -3.1981376944    0.5632562065
O       -0.9056191244   -2.2690927183   -1.3666112439
O       -0.4330619472   -4.5281084316    2.3547050054
H       -0.5768391968    0.0657187159    2.4054047590
H       -0.4358570981    0.0905907420   -0.0711353486
H       -0.7788841321   -2.0896435351    3.6582867384
H       -0.6560758253   -5.7822083654    3.9232097939
H       -1.6454997986   -4.2980360534    4.0393786713
H        0.1211548707   -4.2271225172    4.3446965419
H       -0.1398206331   -4.0817397528    0.0621932334
16   
torsion grid (-120,)
C       -0.4595397678   -0.8660190125    1.8405936729
C       -0.3321640071   -0.8275253128    0.4761570842
C       -0.5763883557   -2.0906291763    2.5805788663
C       -0.4502593239   -2.0951316575   -0.2338029533
C       -0.3698337679   -3.2577147863    1.8855207289
C       -0.6837749175   -4.7106321404    3.7328394340
N        0.0378131856   -3.1769000807    0.5709507822
O       -1.1011200377   -2.3193569750   -1.2477446494
O       -0.4067917806   -4.5273849433    2.3386428608
H       -0.5531063881    0.0695497905    2.3872971968
H       -0.4084894618    0.0956426237   -0.0874460956
H       -0.8210090746   -2.0837489647    3.6338713792
H       -0.6660861385   -5.7876716083    3.8971350542
H       -1.6718595905   -4.3125149291    3.9858597364
H        0.0839436882   -4.2258555013    4.3448121413
H       -0.0499353243   -4.0636781125    0.0748643953
16   
torsion grid (-105,)
C       -0.4353513428   -0.8755648414    1.8181776708
C       -0.2875019140   -0.8401140212    0.4551698583
C       -0.5892897795   -2.1001027966    2.5626210931
C       -0.4688447929   -2.1292166821   -0.2170778667
C       -0.3564265083   -3.2714492029    1.8846221011
C       -0.6968653388   -4.7228483016    3.7238504630
N        0.1112987773   -3.1735070781    0.5857272083
O       -1.2909044622   -2.3657166966   -1.0902655369
O       -0.3953784155   -4.5409638236    2.3342506110
H       -0.5284727951    0.0625223156    2.3607656809
H       -0.3618086390    0.0822977007   -0.1097190564
H       -0.8797701623   -2.0819095315    3.6042131389
H       -0.6654035110   -5.7987008776    3.8938579280
H       -1.6960992091   -4.3392532727    3.9544912563
H        0.0504133273   -4.2218102469    4.3478210267
H        0.0456234522   -4.0720651247    0.1054008866
16   
torsion grid (-90,)
C       -0.4170620720   -0.8640079975    1.8004270621
C       -0.2604006156   -0.8253279478    0.4393746040
C       -0.5971708426   -2.0932651788    2.5423058828
C       -0.4938169789   -2.1368408971   -0.1927529119
C       -0.3325003750   -3.2626972986    1.8733341469
C       -0.7094685887   -4.7232737707    3.6953715714
N        0.1988549977   -3.1414928203    0.5925219518
O       -1.4599650512   -2.4134222863   -0.8824637777
O       -0.3708179756   -4.5338469356    2.3150389429
H       -0.5041664444    0.0743693588    2.3434694370
H       -0.3242780267    0.0950948136   -0.1298283985
H       -0.9257271049   -2.0729055133    3.5725620657
H       -0.6737891331   -5.7993427632    3.8633517262
H       -1.7178770323   -4.3484184497    3.8986418103
H        0.0157761912   -4.2170512164    4.3408331337
H        0.1386112893   -4.0413613100    0.1113605626
16   
torsion grid (-75,)
C       -0.4085277573   -0.8546771293    1.7843484417
C       -0.2463380588   -0.8125784035    0.4254986512
C       -0.6160035714   -2.0912142366    2.5225182498
C       -0.5362239021   -2.1482265568   -0.1663317589
C       -0.3251203883   -3.2597020783    1.8644936534
C       -0.7249689944   -4.7300128691    3.6693398685
N        0.2564722588   -3.1081589191    0.6002038161
O       -1.6155858689   -2.4258073798   -0.6507981438
O       -0.3603424580   -4.5333592413    2.2964568146
H       -0.4690008273    0.0822573511    2.3336615480
H       -0.2677718320    0.1080236522   -0.1457944763
H       -0.9834888944   -2.0678681479    3.5397074810
H       -0.6771840352   -5.8056484342    3.8373758572
H       -1.7427681414   -4.3696446507    3.8510303795
H       -0.0212242678   -4.2129445388    4.3299081746
H        0.2420009731   -4.0137325098    0.1243461810
16   
torsion grid (75,)
C       -0.7303359899   -0.8620116013    1.7608778612
C       -0.6999320966   -0.8231706851    0.3927837772
C       -0.5696610856   -2.0899244340    2.5249813085
C       -0.2644247479   -2.1413138872   -0.1473051962
C       -0.7074578742   -3.2688157228    1.8365401702
C       -0.4981038541   -4.7250393242    3.6847333563
N       -1.1099553009   -3.1410134451    0.5017089173
O        0.8852420622   -2.3639167910   -0.4726647360
O       -0.6726485961   -4.5410001392    2.2733359700
H       -0.7947681964    0.0746324630    2.3102447263
H       -0.6453781085    0.0994550947   -0.1729242742
H       -0.3510142392   -2.0524699518    3.5837644182
H       -0.5190571652   -5.8022805763    3.8479670120
H       -1.3119176095   -4.2435563098    4.2368609654
H        0.4656057090   -4.3182287438    4.0081236396
H       -0.9827421490   -4.0431312941    0.0360237456
16   
torsion grid (90,)
C       -0.7254957589   -0.8731625579    1.7767802512
C       -0.6896968835   -0.8377752316    0.4069863279
C       -0.5931358006   -2.0939270819    2.5422485646
C       -0.3052310168   -2.1343157018   -0.1803730388
C       -0.7030181295   -3.2725594912    1.8465266854
C       -0.5178441927   -4.7185013231    3.7091344327
N       -1.0525771934   -3.1735259415    0.5029490512
O        0.7612013815   -2.3615318465   -0.7252105856
O       -0.6661411980   -4.5416632898    2.2939913996
H       -0.7602202432    0.0669211073    2.3227200759
H       -0.5877782748    0.0865094967   -0.1503164619
H       -0.4159950252   -2.0606025130    3.6087164633
H       -0.5237944670   -5.7955580210    3.8744280911
H       -1.3514809135   -4.2508376363    4.2431770638
H        0.4317499005   -4.2948859139    4.0519700045
H       -0.8826177330   -4.0680888858    0.0384015152
16   
torsion grid (105,)
C       -0.7088769228   -0.8832791124    1.7970958810
C       -0.6636152185   -0.8509991228    0.4267530385
C       -0.6031219497   -2.1011485190    2.5606290158
C       -0.3266740124   -2.1278319925   -0.2078669101
C       -0.6806344997   -3.2803897765    1.8610950807
C       -0.5346073265   -4.7189871344    3.7357347223
N       -0.9636665627   -3.2013749933    0.5086291015
O        0.6213640809   -2.3217447455   -0.9547207495
O       -0.6445714370   -4.5478427117    2.3167295970
H       -0.7390127398    0.0566044340    2.3437137630
H       -0.5544792861    0.0756484566   -0.1254056898
H       -0.4645001225   -2.0720125234    3.6328035241
H       -0.5377953021   -5.7955954760    3.9038252615
H       -1.3861087778   -4.2565540249    4.2455438412
H        0.4021329394   -4.2881355636    4.1040998132
H       -0.7870440725   -4.0942355584    0.0459759212
16   
torsion grid (120,)
C       -0.6893122767   -0.8711994838    1.8243226067
C       -0.6235894366   -0.8354188278    0.4554276696
C       -0.6193523174   -2.0918977414    2.5766731151
C       -0.3455185001   -2.0933503131   -0.2267519924
C       -0.6684225995   -3.2654705020    1.8636729392
C       -0.5488196393   -4.7073004410    3.7422574289
N       -0.8892356773   -3.2005826563    0.5042900960
O        0.4527489133   -2.2823145488   -1.1371846738
O       -0.6340448300   -4.5332778453    2.3222003634
H       -0.7194935317    0.0659232642    2.3755654804
H       -0.5129730531    0.0921285029   -0.0951352961
H       -0.5268448048   -2.0769553036    3.6539405417
H       -0.5372797728   -5.7844315950    3.9065278787
H       -1.4180874746   -4.2623327235    4.2375238724
H        0.3729540573   -4.2624212597    4.1311615933
H       -0.6887874584   -4.0803300642    0.0287564660
16   
torsion grid (135,)
C       -0.6626402412   -0.8736194042    1.8446768378
C       -0.5851953809   -0.8389275505    0.4769897285
C       -0.6207705953   -2.0935315883    2.5929768410
C       -0.3559602683   -2.0822575989   -0.2401228052
C       -0.6387962093   -3.2658732388    1.8760518255
C       -0.5668625893   -4.7029276971    3.7640991778
N       -0.7877564089   -3.2157950756    0.5116278428
O        0.2736873991   -2.2402149706   -1.2826990165
O       -0.6104985164   -4.5324266897    2.3420216423
H       -0.6986072667    0.0627622770    2.3967805311
H       -0.4887110697    0.0893559470   -0.0748585081
H       -0.5714776354   -2.0845922968    3.6730368214
H       -0.5511288604   -5.7796614818    3.9306029617
H       -1.4547493482   -4.2656044245    4.2324874450
H        0.3386728308   -4.2496275200    4.1805434637
H       -0.5976542274   -4.0928585387    0.0295632778
16   
torsion grid (150,)
C       -0.6329917113   -0.8798882454    1.8545461651
C       -0.5467511631   -0.8486919170    0.4878553724
C       -0.6167436353   -2.0973264827    2.6024585483
C       -0.3669644723   -2.0830251951   -0.2536431263
C       -0.6039792328   -3.2705725281    1.8864173635
C       -0.5831878896   -4.6991783853    3.7849106453
N       -0.6756060830   -3.2352479195    0.5199440094
O        0.0837104833   -2.2163833337   -1.3906912894
O       -0.5847543174   -4.5349438379    2.3616745513
H       -0.6764700823    0.0572052849    2.4049111510
H       -0.4718888603    0.0792716617   -0.0677297715
H       -0.6100381006   -2.0904237034    3.6835571691
H       -0.5660228644   -5.7751523948    3.9561904924
H       -1.4875685067   -4.2663123420    4.2250753926
H        0.3065029632   -4.2387896979    4.2270251425
H       -0.5154583203   -4.1138659562    0.0326249428
16   
torsion grid (165,)
C       -0.6113004652   -0.8843069079    1.8509316160
C       -0.5214069320   -0.8559884433    0.4846564596
C       -0.6141043047   -2.1011049581    2.5970883888
C       -0.3898489913   -2.0843313786   -0.2742303518
C       -0.5684768065   -3.2756505161    1.8839958102
C       -0.6044161605   -4.6990426001    3.7873265438
N       -0.5594196803   -3.2470747367    0.5191269077
O       -0.1218194332   -2.2007650514   -1.4708360243
O       -0.5581292000   -4.5386959063    2.3645766290
H       -0.6630951934    0.0529833186    2.4003299993
H       -0.4748695690    0.0723153846   -0.0732169702
H       -0.6482992802   -2.0951880070    3.6776008027
H       -0.5897308730   -5.7745349929    3.9618189084
H       -1.5246819895   -4.2685714543    4.1957308427
H        0.2682650957   -4.2345334416    4.2581550652
H       -0.4438974371   -4.1292070412    0.0276158662
16   
torsion grid (180,)
C       -0.5775029260   -0.8816559895    1.8791329303
C       -0.4811030639   -0.8496721344    0.5135591388
C       -0.6005932891   -2.0993647741    2.6220339679
C       -0.3963758442   -2.0745432358   -0.2565906510
C       -0.5212078071   -3.2711384555    1.9070660802
C       -0.6212950108   -4.6984701168    3.8059412973
N       -0.4251214389   -3.2411605846    0.5468808767
O       -0.3065515608   -2.1851873879   -1.4806297199
O       -0.5244447543   -4.5352183122    2.3860780052
H       -0.6394322867    0.0543667293    2.4295637823
H       -0.4640011103    0.0793512911   -0.0447952446
H       -0.6780426912   -2.0976605523    3.7003045739
H       -0.6080316057   -5.7742336303    3.9789392656
H       -1.5577407768   -4.2733636440    4.1819317195
H        0.2315990538   -4.2308550065    4.3088646234
H       -0.3673704559   -4.1239442326    0.0471348924
