19   
torsion grid (-165,)
C       -3.7582150278   -1.0624042732   -1.6058751850
C       -4.0206601322   -1.5792672817   -0.3662789496
C       -1.7243613493   -0.8520748637   -0.7573505818
C        0.6953903811    0.0971043251    1.1734420301
C       -0.0702588953    0.9198039162    0.1147971376
C       -0.2774834264   -0.4476651029   -0.6367294363
C        0.4482420013   -0.5539690944   -1.9837846877
N       -2.4573702133   -0.6565901290   -1.8182369526
N        0.3920866629   -1.0838926198    0.5181635620
O        1.3354287360    0.3366084173    2.1738934105
S       -2.5808445396   -1.5669045749    0.5999326808
H       -4.4837361984   -0.9624662518   -2.4060502423
H       -4.9544744543   -1.9703747868    0.0161585584
H       -0.9826622947    1.3948647561    0.4781791860
H        0.5484032191    1.6440929188   -0.4183779859
H        1.5265699047   -0.6444272978   -1.8294058144
H        0.2528996259    0.3436554597   -2.5762659237
H        0.0701569176   -1.3903174940   -2.5759906140
H        0.7921032897   -2.0128736225    0.6187437295
19   
torsion grid (-150,)
C       -3.7622173326   -1.0824850667   -1.5976493369
C       -4.0127214209   -1.5959094711   -0.3542355801
C       -1.7254167668   -0.8479642045   -0.7609384245
C        0.6616454753    0.1536488469    1.1729507684
C       -0.1041730161    0.9544898049    0.0988301996
C       -0.2830058721   -0.4231925355   -0.6452011930
C        0.4560536200   -0.5447068158   -1.9910830892
N       -2.4667139377   -0.6639731248   -1.8180438082
N        0.3869370278   -1.0368359015    0.5231282815
O        1.2839450587    0.4119253842    2.1798885544
S       -2.5677135627   -1.5650917514    0.6038660921
H       -4.4927916429   -0.9934398300   -2.3945189628
H       -4.9402871815   -1.9953680594    0.0347407538
H       -1.0270437206    1.4210444281    0.4465762149
H        0.5116691553    1.6823839543   -0.4322313532
H        1.4799440372   -0.8929941159   -1.8341862214
H        0.4994567349    0.4278552746   -2.4877999244
H       -0.0708012226   -1.2109163493   -2.6759619683
H        0.8064985239   -1.9562262869    0.6325938370
19   
torsion grid (-135,)
C       -3.7612687031   -1.0985895061   -1.5868856396
C       -3.9999234236   -1.6393195393   -0.3527379980
C       -1.7118886953   -0.9008605945   -0.7721810589
C        0.7132662678    0.0281845921    1.1617496427
C       -0.0627750754    0.8666786518    0.1272357866
C       -0.2659414152   -0.4871899467   -0.6593430359
C        0.4791177241   -0.5973562123   -2.0065534580
N       -2.4652937372   -0.6858318532   -1.8146235189
N        0.4057130184   -1.1402703238    0.4888383920
O        1.3613000828    0.2519415188    2.1610728120
S       -2.5425901814   -1.6430158633    0.5867342604
H       -4.5010832465   -0.9847283401   -2.3719550635
H       -4.9256645493   -2.0407610128    0.0385938412
H       -0.9775333504    1.3231768548    0.5088569013
H        0.5434144063    1.6111009158   -0.3908895053
H        1.3517205307   -1.2476682358   -1.9009346451
H        0.8311480005    0.3793356935   -2.3463235292
H       -0.1709279804   -1.0035815113   -2.7818793642
H        0.8257173511   -2.0633917842    0.5609538738
19   
torsion grid (-120,)
C       -3.7718556605   -1.1217476768   -1.5958294753
C       -4.0069784618   -1.6791966987   -0.3683086141
C       -1.7263029534   -0.9117892257   -0.7740962465
C        0.7266635848    0.0188914888    1.1550661451
C       -0.0724335861    0.8613287496    0.1438832784
C       -0.2855266977   -0.4875717375   -0.6506786481
C        0.4790992981   -0.6073273185   -1.9826854067
N       -2.4799389652   -0.6932859756   -1.8160630238
N        0.3874942355   -1.1491531507    0.4956804257
O        1.4081861098    0.2392238135    2.1322171015
S       -2.5517851487   -1.6779807342    0.5739730937
H       -4.5113873640   -1.0066570204   -2.3809903252
H       -4.9295333004   -2.0936665099    0.0169548325
H       -0.9824157246    1.3046847730    0.5523549452
H        0.5111224359    1.6191894900   -0.3804546652
H        1.1261656820   -1.4895394911   -1.9544423141
H        1.1113881968    0.2635892225   -2.1679681445
H       -0.2115882692   -0.7425627406   -2.8160033672
H        0.8262226254   -2.0654721968    0.5439795940
19   
torsion grid (-105,)
C       -3.7724276058   -1.1328853118   -1.5956074538
C       -4.0029537727   -1.7129905005   -0.3776837875
C       -1.7301225069   -0.9165703842   -0.7682246391
C        0.7327710942    0.0282082357    1.1543072150
C       -0.0746396465    0.8657634451    0.1460689390
C       -0.2927470403   -0.4856403307   -0.6402728492
C        0.4732194990   -0.6119681127   -1.9631804798
N       -2.4848246203   -0.6876989703   -1.8074096323
N        0.3860048345   -1.1435609435    0.5049923307
O        1.4244420157    0.2535231554    2.1232586975
S       -2.5488551157   -1.7124512477    0.5661362385
H       -4.5126061332   -1.0116824523   -2.3792321868
H       -4.9220968789   -2.1414013265    0.0003774727
H       -0.9814857062    1.3107916633    0.5596155952
H        0.5036788970    1.6213386956   -0.3876464216
H        0.8877050162   -1.6225749806   -2.0465273669
H        1.3008426819    0.0991941888   -2.0164911150
H       -0.2008267945   -0.4817581861   -2.8115485841
H        0.8309955763   -2.0570712916    0.5500959776
19   
torsion grid (-90,)
C       -3.7625889209   -1.1554691400   -1.5900721067
C       -3.9876674571   -1.7364520854   -0.3715558413
C       -1.7237803709   -0.9153808785   -0.7608097603
C        0.7323469163    0.0807456689    1.1433192418
C       -0.0797068676    0.8936807974    0.1173356483
C       -0.2895122224   -0.4737735952   -0.6378158212
C        0.4672001135   -0.6084863595   -1.9591339887
N       -2.4797236959   -0.6962200728   -1.8012910208
N        0.3972850564   -1.1064487032    0.5149280191
O        1.4206695907    0.3294078395    2.1089632239
S       -2.5347089229   -1.7180766978    0.5739645845
H       -4.5035111274   -1.0432387658   -2.3743401393
H       -4.9026479336   -2.1734509231    0.0067119462
H       -0.9881225568    1.3465373881    0.5181724628
H        0.4994227458    1.6368888431   -0.4332998890
H        0.6775324283   -1.6649336531   -2.1587295465
H        1.4166268885   -0.0678309350   -1.9191165390
H       -0.1450025146   -0.2436988641   -2.7861882319
H        0.8491180066   -2.0154547214    0.5769916793
19   
torsion grid (-75,)
C       -3.7561572376   -1.1672301352   -1.5879603350
C       -3.9848878109   -1.7510341932   -0.3714964676
C       -1.7195439951   -0.9298993632   -0.7527823431
C        0.7301992347    0.0752987368    1.1482768861
C       -0.0791615081    0.8803871674    0.1118771536
C       -0.2839058174   -0.4926381542   -0.6294441107
C        0.4611081408   -0.6166164741   -1.9566746270
N       -2.4724533884   -0.7078628393   -1.7947825221
N        0.4012441010   -1.1180222163    0.5259284174
O        1.4142409766    0.3313840042    2.1149039101
S       -2.5342612443   -1.7353671293    0.5779695353
H       -4.4950912248   -1.0527132869   -2.3737886943
H       -4.9011288722   -2.1882491680    0.0034260891
H       -0.9893889361    1.3375094396    0.5032184281
H        0.5050303732    1.6170762155   -0.4426380464
H        0.4828849525   -1.6587312993   -2.2906844667
H        1.4894086997   -0.2607145732   -1.8421096764
H       -0.0431652761   -0.0285502747   -2.7262691471
H        0.8557274194   -2.0250223353    0.5948893574
19   
torsion grid (-60,)
C       -3.7308307633   -1.1744913779   -1.5828112609
C       -3.9771735714   -1.7349864127   -0.3588716699
C       -1.6913275465   -0.9747927734   -0.7465505195
C        0.7617218872   -0.0609270616    1.1734761885
C       -0.0239666370    0.7841064907    0.1483269699
C       -0.2460008220   -0.5663631550   -0.6276960532
C        0.4725059618   -0.6470072325   -1.9749637905
N       -2.4357048093   -0.7502841663   -1.7937605063
N        0.4385949314   -1.2288785712    0.5038381158
O        1.4260273777    0.1577220403    2.1627706771
S       -2.5286610730   -1.7417646489    0.5940739800
H       -4.4648211135   -1.0540554920   -2.3723683298
H       -4.9043197949   -2.1457321498    0.0191878810
H       -0.9286766834    1.2516172207    0.5396471514
H        0.5838609075    1.5196875529   -0.3821247908
H        0.2968867672   -1.6073334281   -2.4662580621
H        1.5482979739   -0.5167515426   -1.8185691753
H        0.1257159050    0.1515457961   -2.6341707431
H        0.8501646927   -2.1559561393    0.5704463287
19   
torsion grid (-45,)
C       -3.7226454714   -1.1959312043   -1.5695131593
C       -3.9657022424   -1.7445771464   -0.3396540597
C       -1.6779787498   -0.9979094883   -0.7436620268
C        0.7629856153   -0.0867669012    1.1774328359
C       -0.0193211384    0.7589112419    0.1494604728
C       -0.2310918203   -0.5899171131   -0.6332463707
C        0.4766407620   -0.6587752129   -1.9927357202
N       -2.4265095403   -0.7789162413   -1.7889843856
N        0.4571925734   -1.2520056579    0.4957551720
O        1.4138909735    0.1303042524    2.1759327113
S       -2.5127018768   -1.7509554040    0.6067053660
H       -4.4595386126   -1.0792629966   -2.3569520165
H       -4.8925706585   -2.1492793729    0.0455195803
H       -0.9287266060    1.2214320742    0.5356880909
H        0.5904476450    1.4986395717   -0.3727436801
H        0.1231220371   -1.4965915447   -2.5963439549
H        1.5539938945   -0.7643017161   -1.8283264305
H        0.3259837666    0.2691289353   -2.5484671018
H        0.8621738139   -2.1814925434    0.5676533631
19   
torsion grid (-30,)
C       -3.7237275382   -1.2166820790   -1.5639238467
C       -3.9564304597   -1.7604569660   -0.3299267772
C       -1.6781047839   -0.9920453475   -0.7471318206
C        0.7293600337   -0.0270714837    1.1796133318
C       -0.0538810776    0.7968921106    0.1359921454
C       -0.2364926188   -0.5625833374   -0.6398759187
C        0.4855640868   -0.6467765165   -1.9980509666
N       -2.4329043717   -0.7875210278   -1.7907804395
N        0.4517926534   -1.2020681888    0.5034963573
O        1.3631366876    0.2088211857    2.1848809762
S       -2.5000344962   -1.7449731773    0.6110360464
H       -4.4645552866   -1.1125834387   -2.3494255713
H       -4.8772832316   -2.1734889763    0.0608300634
H       -0.9742266914    1.2500457179    0.5073514291
H        0.5515065577    1.5411270882   -0.3843473986
H       -0.0259572429   -1.3172324749   -2.6892996894
H        1.5073874584   -1.0061790676   -1.8426960471
H        0.5634398531    0.3394807171   -2.4605790699
H        0.8746126322   -2.1228188983    0.5855966934
19   
torsion grid (-15,)
C       -3.7216437601   -1.2404184445   -1.5553306544
C       -3.9431620450   -1.7872790485   -0.3206368595
C       -1.6719067006   -1.0040966706   -0.7517689847
C        0.7347970227   -0.0336168819    1.1777359274
C       -0.0524381754    0.7928425768    0.1413509696
C       -0.2332956105   -0.5630940781   -0.6468887497
C        0.5047432470   -0.6578240327   -1.9993699779
N       -2.4352169238   -0.8027205478   -1.7898349798
N        0.4586767620   -1.2040304150    0.4959282289
O        1.3685172980    0.1991972567    2.1838943941
S       -2.4808782283   -1.7635624743    0.6106213937
H       -4.4679941977   -1.1398569729   -2.3360278733
H       -4.8588761939   -2.2066402563    0.0754752650
H       -0.9738254533    1.2379945112    0.5203187209
H        0.5451238286    1.5452842832   -0.3754903691
H       -0.1409667869   -1.0778807593   -2.7711624302
H        1.3906479917   -1.2903217764   -1.8980901800
H        0.8357754012    0.3255068615   -2.3408671248
H        0.8773959138   -2.1268915943    0.5771005681
19   
torsion grid (0,)
C       -3.8332452706   -0.6993029004   -1.6394361170
C       -4.1438182591   -1.3879977769   -0.4985089732
C       -1.7805262816   -0.8760494912   -0.8255579471
C        0.7516126816   -0.5486162553    1.1892063039
C        0.0830936917    0.5220091299    0.3069382184
C       -0.2963795455   -0.6649944739   -0.6638154406
C        0.4527243969   -0.6970349263   -2.0098389923
N       -2.4951084755   -0.4160330218   -1.8149643302
N        0.2768629608   -1.5595771269    0.3729927267
O        1.4385613580   -0.5560091837    2.1870693198
S       -2.7050648046   -1.7094689532    0.4140096175
H       -4.5479411106   -0.3794194781   -2.3901307979
H       -5.1143075359   -1.7285566821   -0.1616645693
H       -0.7641101487    1.0257113265    0.7758019328
H        0.7715396062    1.2569407752   -0.1123205459
H       -0.2533543532   -0.6014689987   -2.8366372567
H        0.9955917873   -1.6384028932   -2.1261400357
H        1.1573453642    0.1338340814   -2.0933650694
H        0.5896133495   -2.5239514170    0.2928052710
19   
torsion grid (15,)
C       -3.8323309000   -0.7225655095   -1.6357492441
C       -4.1338156563   -1.4197077900   -0.4972773873
C       -1.7803486104   -0.8600085001   -0.8152298685
C        0.7711063635   -0.4523836914    1.1787463702
C        0.0744947314    0.5889676634    0.2840785461
C       -0.3013402697   -0.6241394320   -0.6531690566
C        0.4500250163   -0.6846465703   -1.9896139980
N       -2.4998628259   -0.4125411666   -1.8071208814
N        0.2869214819   -1.4895486723    0.4010926981
O        1.4820569994   -0.4271192473    2.1595043043
S       -2.6922056766   -1.7124440668    0.4199916589
H       -4.5508520404   -0.4152410869   -2.3880247096
H       -5.0987958755   -1.7787157865   -0.1637793360
H       -0.7747470234    1.0864711681    0.7560169283
H        0.7413157345    1.3283412487   -0.1617993190
H       -0.2037033012   -0.3491168437   -2.7976417964
H        0.7662652758   -1.7080290567   -2.2098425616
H        1.3214878799   -0.0247647897   -1.9788451307
H        0.6203198467   -2.4480719030    0.3335294526
19   
torsion grid (30,)
C       -3.8316607447   -0.7374336746   -1.6376370468
C       -4.1344497058   -1.4453785945   -0.5062284145
C       -1.7819412063   -0.8725271501   -0.8111785142
C        0.7698240772   -0.4576824381    1.1803321132
C        0.0735259772    0.5803672478    0.2799801109
C       -0.3036662099   -0.6369235861   -0.6469012859
C        0.4388131059   -0.6894784398   -1.9824466631
N       -2.4998552322   -0.4201756168   -1.8021072078
N        0.2885566765   -1.4995119679    0.4059478831
O        1.4799867259   -0.4277328336    2.1615862779
S       -2.6944566166   -1.7394891605    0.4132968422
H       -4.5489675557   -0.4266248635   -2.3896454154
H       -5.0992046543   -1.8102726344   -0.1785453488
H       -0.7727683610    1.0867267607    0.7472553888
H        0.7450271770    1.3115040734   -0.1732793635
H       -0.1186770914   -0.1321278024   -2.7387782719
H        0.5373924966   -1.7226083863   -2.3285630032
H        1.4311544275   -0.2398148409   -1.8861238534
H        0.6243207810   -2.4572706963    0.3404934988
19   
torsion grid (45,)
C       -3.8208653603   -0.7621765404   -1.6358955352
C       -4.1200221919   -1.4611456094   -0.4979529932
C       -1.7725196505   -0.8719817219   -0.8028742738
C        0.7746991963   -0.4045529138    1.1772536777
C        0.0689358412    0.6119607360    0.2576001377
C       -0.2955463507   -0.6254044830   -0.6440654199
C        0.4335277156   -0.6727685634   -1.9849341400
N       -2.4912467678   -0.4353986270   -1.8002458323
N        0.3074598125   -1.4649352062    0.4177652675
O        1.4824800872   -0.3520071461    2.1591416009
S       -2.6801370865   -1.7343108175    0.4284042589
H       -4.5391275742   -0.4648679555   -2.3924510706
H       -5.0825319579   -1.8303230690   -0.1685521176
H       -0.7815453577    1.1213707862    0.7134910358
H        0.7374523704    1.3375357397   -0.2093806848
H       -0.0018661540    0.0537919589   -2.6741516213
H        0.3406944645   -1.6641358973   -2.4393206084
H        1.4945880322   -0.4472521700   -1.8415950093
H        0.6518375885   -2.4204562981    0.3688779717
19   
torsion grid (60,)
C       -3.8004191329   -0.8014426060   -1.6393448022
C       -4.1056207346   -1.4532030564   -0.4753352871
C       -1.7537949636   -0.8889538532   -0.8006958470
C        0.7767883985   -0.4200592825    1.1809649086
C        0.0786875612    0.5966572962    0.2534712855
C       -0.2756223366   -0.6410293662   -0.6510862786
C        0.4365146829   -0.6609528194   -2.0040532756
N       -2.4690820639   -0.4878514659   -1.8151062714
N        0.3358989018   -1.4785232704    0.4041198034
O        1.4626986493   -0.3682500289    2.1782583552
S       -2.6678303032   -1.6985223563    0.4621243145
H       -4.5161424657   -0.5311532168   -2.4083217937
H       -5.0702486329   -1.8054529890   -0.1337892231
H       -0.7747329525    1.1108081180    0.6979463176
H        0.7571032762    1.3172850328   -0.2074115370
H        0.1555277541    0.2104887395   -2.5979339366
H        0.1587119933   -1.5537409267   -2.5726391601
H        1.5196815679   -0.6813973375   -1.8501653094
H        0.6617316254   -2.4408469830    0.3689992380
19   
torsion grid (75,)
C       -3.8041636702   -0.8703711816   -1.6381563919
C       -4.0929741930   -1.4706539978   -0.4428184535
C       -1.7572612384   -0.8573079818   -0.7950926594
C        0.7231010474   -0.2134773948    1.1836746399
C        0.0048859620    0.7350974683    0.1998073981
C       -0.2875637284   -0.5537232810   -0.6554818203
C        0.4267802352   -0.5982679317   -2.0128548208
N       -2.4815447376   -0.5292853483   -1.8288586505
N        0.3463183323   -1.3184137201    0.4394742017
O        1.3800470957   -0.0935188056    2.1944911043
S       -2.6506574549   -1.6277563558    0.5069426292
H       -4.5256206858   -0.6598507179   -2.4203549554
H       -5.0476562163   -1.8336284157   -0.0849563637
H       -0.8755066718    1.2340077430    0.6074213798
H        0.6647115599    1.4605499305   -0.2797333397
H        0.3161632324    0.3478886921   -2.5452371787
H        0.0035672577   -1.3824310814   -2.6460279640
H        1.4858084848   -0.8291836259   -1.8653367248
H        0.6895178264   -2.2748832087    0.4629798089
19   
torsion grid (90,)
C       -3.8044732177   -0.8827397570   -1.6216656160
C       -4.0802632083   -1.4949315053   -0.4293363358
C       -1.7489567281   -0.8739687876   -0.7981945481
C        0.7132957059   -0.2229578427    1.1878015553
C        0.0019753127    0.7241230050    0.1986713340
C       -0.2790006357   -0.5645353399   -0.6643392202
C        0.4419635307   -0.6157118298   -2.0250084338
N       -2.4843330252   -0.5373072356   -1.8212515375
N        0.3536548134   -1.3266175174    0.4347354462
O        1.3549824160   -0.1020810304    2.2083479429
S       -2.6285981684   -1.6579229864    0.5050014643
H       -4.5337354225   -0.6659694723   -2.3948846825
H       -5.0306098467   -1.8637996078   -0.0659843553
H       -0.8832766284    1.2217468870    0.5973849307
H        0.6659763410    1.4513264141   -0.2718470276
H        0.5790004677    0.3840287069   -2.4411028931
H       -0.1349892806   -1.1945969845   -2.7486997414
H        1.4165723832   -1.0984642023   -1.9119871726
H        0.7008402767   -2.2816544862    0.4598525039
19   
torsion grid (105,)
C       -3.8097744621   -0.9194181037   -1.6235020356
C       -4.0762024664   -1.5173574639   -0.4217999210
C       -1.7534872841   -0.8713991348   -0.8030297725
C        0.7069057852   -0.1782163699    1.1810314103
C       -0.0170151323    0.7564230189    0.1916926084
C       -0.2884751462   -0.5385538977   -0.6699490172
C        0.4512082512   -0.6122657431   -2.0229748376
N       -2.4946661575   -0.5597726074   -1.8298802800
N        0.3497824904   -1.2877380792    0.4379504729
O        1.3533435225   -0.0453366543    2.1972283157
S       -2.6216129604   -1.6474915595    0.5126985108
H       -4.5425121864   -0.7238542624   -2.3990653730
H       -5.0212371499   -1.8932931304   -0.0518355167
H       -0.9074536874    1.2408619585    0.5957714800
H        0.6312779743    1.4945397183   -0.2828133046
H        0.8635699209    0.3595163400   -2.3035750807
H       -0.2204159558   -0.9306342105   -2.8208820212
H        1.2815543419   -1.3203017980   -1.9574445640
H        0.7020792869   -2.2409153712    0.4692083675
19   
torsion grid (120,)
C       -3.8233369565   -0.9612419791   -1.6333067156
C       -4.0835251413   -1.5206144544   -0.4118086478
C       -1.7827325537   -0.8014124747   -0.7881362546
C        0.6634770000    0.0715194801    1.1732714392
C       -0.1036058228    0.9330677218    0.1529169260
C       -0.3341167917   -0.4088554050   -0.6483683556
C        0.4394911512   -0.5413664693   -1.9738083267
N       -2.5198634172   -0.5598744264   -1.8366699464
N        0.3136762901   -1.0865907674    0.5022370478
O        1.3327496123    0.2744697516    2.1624997172
S       -2.6391914389   -1.5570146921    0.5466052443
H       -4.5516247608   -0.8252074466   -2.4255927091
H       -5.0190630306   -1.9170341209   -0.0390946969
H       -1.0095124501    1.3950218530    0.5495003199
H        0.5039714314    1.6791886288   -0.3608951959
H        1.0831636677    0.3276838543   -2.1359622685
H       -0.2402329862   -0.6287139414   -2.8215734653
H        1.0991780835   -1.4129567799   -1.9381305112
H        0.7283340544   -2.0136727595    0.5562145098
19   
torsion grid (135,)
C       -3.8215208151   -0.9821867867   -1.6266255570
C       -4.0706747924   -1.5504081157   -0.4067917673
C       -1.7835406444   -0.7881151139   -0.7821052854
C        0.6724347213    0.1477680529    1.1531113486
C       -0.1149513293    0.9827972084    0.1267878381
C       -0.3414466528   -0.3753121316   -0.6451556096
C        0.4362186029   -0.5286841712   -1.9592626846
N       -2.5258939895   -0.5563432956   -1.8295375001
N        0.3179506872   -1.0272698486    0.5140145322
O        1.3561827434    0.3761943812    2.1269159365
S       -2.6252954623   -1.5625724075    0.5504112773
H       -4.5529654525   -0.8565118664   -2.4177340094
H       -4.9988716285   -1.9637178751   -0.0341069529
H       -1.0208513471    1.4420769997    0.5267134835
H        0.4765221998    1.7259361066   -0.4097675954
H        1.2605451970    0.1898606445   -1.9967214354
H       -0.2122255626   -0.3717202090   -2.8218844575
H        0.8887138925   -1.5236547998   -2.0136442527
H        0.7467120138   -1.9473774702    0.5775735943
19   
torsion grid (150,)
C       -3.8178665712   -0.9961126882   -1.6275164374
C       -4.0675146307   -1.5772723577   -0.4139122012
C       -1.7830899124   -0.8004474036   -0.7762718792
C        0.6713704348    0.1417765710    1.1573059934
C       -0.1142686219    0.9731791851    0.1255063985
C       -0.3416778662   -0.3877647350   -0.6361643332
C        0.4283871506   -0.5343555115   -1.9489987105
N       -2.5238620813   -0.5618152526   -1.8233663149
N        0.3200072180   -1.0370124721    0.5218132285
O        1.3539772122    0.3742522373    2.1309396571
S       -2.6242584972   -1.5917549802    0.5465351071
H       -4.5481175066   -0.8659184941   -2.4189956208
H       -4.9949433397   -1.9974485037   -0.0470685296
H       -1.0183341570    1.4413450947    0.5185387751
H        0.4842046623    1.7074193863   -0.4163313031
H        1.3790833635    0.0041614125   -1.8854171160
H       -0.1541967623   -0.1450535432   -2.7854330273
H        0.6608217211   -1.5879454440   -2.1349165350
H        0.7536276085   -1.9547081727    0.5859078813
19   
torsion grid (165,)
C       -3.8006973796   -1.0185121457   -1.6220038449
C       -4.0495059524   -1.5888823364   -0.4031065402
C       -1.7706071353   -0.7975841104   -0.7677778653
C        0.6689737595    0.1995808838    1.1505913114
C       -0.1202053605    1.0030049991    0.0973859585
C       -0.3314679899   -0.3750879457   -0.6327421124
C        0.4273818674   -0.5216656833   -1.9497595456
N       -2.5095979879   -0.5760935227   -1.8196609578
N        0.3333051821   -0.9963472619    0.5365382935
O        1.3454674976    0.4576620965    2.1219324630
S       -2.6086850501   -1.5817070162    0.5613255414
H       -4.5298687299   -0.9023019885   -2.4166379300
H       -4.9747866993   -2.0119814244   -0.0342070256
H       -1.0298843915    1.4730433547    0.4745024680
H        0.4774533718    1.7284559109   -0.4575280930
H        1.4546253895   -0.1636563341   -1.8310990174
H       -0.0690632882    0.0518215781   -2.7351407872
H        0.4538906452   -1.5697880774   -2.2641010537
H        0.7778760112   -1.9071368666    0.6189382920
19   
torsion grid (180,)
C       -3.7697052113   -1.0382834552   -1.6168284442
C       -4.0324694942   -1.5722257587   -0.3845058766
C       -1.7388259056   -0.8292840849   -0.7619523280
C        0.6950591691    0.1172657969    1.1676250126
C       -0.0744902545    0.9420273323    0.1142228639
C       -0.2931204701   -0.4248865270   -0.6338035096
C        0.4414434394   -0.5411538088   -1.9692870684
N       -2.4705714279   -0.6232938438   -1.8217787198
N        0.3735109553   -1.0644751606    0.5215849679
O        1.3493605538    0.3554900053    2.1590650766
S       -2.5944806425   -1.5652934684    0.5843107451
H       -4.4941806695   -0.9311975302   -2.4170128996
H       -4.9656321081   -1.9710365282   -0.0084633640
H       -0.9819511758    1.4215296360    0.4841869613
H        0.5422363043    1.6633158896   -0.4254464494
H        1.5158726509   -0.4005676908   -1.8214784064
H        0.0711218352    0.2209794449   -2.6591569776
H        0.2514968883   -1.5097309091   -2.4401769547
H        0.7819867814   -1.9908272215    0.6129509747
