17   
torsion grid (-165,)
C        2.7625283833   -1.6870191667   -0.7633863521
C        2.0739376503   -0.6351179781   -0.1333351269
C        0.9546773030   -0.1234090293   -0.7968974376
C        0.6401957842   -0.7216492620   -2.0291894873
C        3.5342667949   -0.6105721149    1.7427121507
C        3.6638575855    0.1491585629    3.0577853309
N        2.3979041333   -2.2009693002   -1.9382659468
N        1.3347838897   -1.7181175678   -2.5736383729
O        2.4113654192   -0.0830338815    1.0546832131
F        2.7072228401   -0.2102062169    3.9380719256
F        3.6083088675    1.4806283950    2.8898149348
F        4.8629376077   -0.1589607507    3.6113422721
Cl       0.0438398177    1.1689270473   -0.1027057575
Cl      -0.7282771175   -0.1712252627   -2.9475894932
H        3.6418232167   -2.1426680968   -0.3191552130
H        4.4649026730   -0.4900168241    1.1788723492
H        3.3948761025   -1.6697132662    1.9837295414
17   
torsion grid (-150,)
C        2.7230994834   -1.7057357352   -0.7277833193
C        2.0457246156   -0.6310091672   -0.1246201336
C        0.9549346345   -0.1000376346   -0.8199124341
C        0.6542142786   -0.7031341582   -2.0532001301
C        3.4564193461   -0.6248229088    1.7876836902
C        3.5767004240    0.1278908385    3.1146206620
N        2.3732468432   -2.2230207185   -1.9057580223
N        1.3371908889   -1.7217421780   -2.5707977963
O        2.3681594175   -0.0730559870    1.0650618288
F        2.7899923942   -0.4198300828    4.0669650981
F        3.2740169827    1.4293458880    3.0076685733
F        4.8567965770    0.0236780738    3.5530924375
Cl       0.0598140131    1.2209450606   -0.1601470225
Cl      -0.6789388889   -0.1297838439   -3.0088635289
H        3.5808132902   -2.1775011530   -0.2590055909
H        4.4074390184   -0.5442439790    1.2521199603
H        3.2799764710   -1.6791429441    2.0259102466
17   
torsion grid (-135,)
C        2.6876505035   -1.7327112739   -0.7095733283
C        2.0363065499   -0.6303922997   -0.1277900039
C        0.9738820689   -0.0723177294   -0.8457743471
C        0.6724464737   -0.6783977543   -2.0773256436
C        3.4251539022   -0.6416420987    1.7991679275
C        3.5732583585    0.1295390062    3.1222523078
N        2.3392152645   -2.2509039003   -1.8876656188
N        1.3301257442   -1.7239024363   -2.5737895555
O        2.3562676048   -0.0705376136    1.0616293248
F        3.0414288103   -0.5672579482    4.1533226782
F        3.0043636556    1.3412749680    3.0931154946
F        4.8920471665    0.2883551503    3.3988107432
Cl       0.1121513462    1.2838783176   -0.2136555712
Cl      -0.6268518186   -0.0727608444   -3.0594124892
H        3.5220611255   -2.2273336059   -0.2227468947
H        4.3757656769   -0.5931244141    1.2598114063
H        3.2160550838   -1.6869599937    2.0480575400
17   
torsion grid (-120,)
C        2.6563013205   -1.7669924360   -0.6913201943
C        2.0373498899   -0.6351264327   -0.1309026081
C        1.0057340296   -0.0475231778   -0.8702570240
C        0.6992662881   -0.6566156057   -2.0989904298
C        3.4031545350   -0.6720700863    1.8124882942
C        3.5810442788    0.1271459430    3.1208692175
N        2.3052252842   -2.2859013145   -1.8683244473
N        1.3253190050   -1.7309526583   -2.5744054595
O        2.3592062785   -0.0737381851    1.0570152542
F        3.3542569315   -0.6690407654    4.1930808890
F        2.7619327497    1.1828878888    3.2078861851
F        4.8553048447    0.5761947291    3.2232392949
Cl       0.1853074536    1.3462613514   -0.2654915867
Cl      -0.5638044644   -0.0160128829   -3.1059404839
H        3.4653959095   -2.2859534481   -0.1874458531
H        4.3496420995   -0.6480853268    1.2647935993
H        3.1551642579   -1.7046876911    2.0745160825
17   
torsion grid (-105,)
C        2.6215066159   -1.7955514066   -0.6699321629
C        2.0372595414   -0.6362735748   -0.1283882858
C        1.0395122117   -0.0173184699   -0.8884758299
C        0.7294915310   -0.6255936056   -2.1167017440
C        3.3828998331   -0.7007725376    1.8302803113
C        3.5900928284    0.1330507002    3.1094775511
N        2.2694737545   -2.3114840641   -1.8479344942
N        1.3220509581   -1.7265372999   -2.5738368954
O        2.3604264171   -0.0784362978    1.0605469212
F        3.6966095565   -0.6942931807    4.1775475244
F        2.5764321693    0.9774112253    3.3491178387
F        4.7287867322    0.8585058268    3.0386821262
Cl       0.2622892336    1.4111783518   -0.3080037016
Cl      -0.4933437067    0.0526042657   -3.1484141252
H        3.4020992136   -2.3405103374   -0.1487921019
H        4.3229007739   -0.7010059782    1.2709224927
H        3.0993927099   -1.7175955266    2.1146827091
17   
torsion grid (-90,)
C        2.9983710487   -1.0525650407   -1.0607954675
C        2.0280388163   -0.7592190388   -0.0857064600
C        0.6891390181   -0.8426006666   -0.4810176473
C        0.4600305179   -1.2125121415   -1.8172485975
C        3.6488560361   -0.2996018575    1.5939845953
C        3.6582175616    0.1639906277    3.0550366000
N        2.6974895059   -1.3972989209   -2.3131093688
N        1.4263806456   -1.4777692658   -2.6935355647
O        2.2869546324   -0.4096133684    1.1947095680
F        4.7845964910   -0.2921092363    3.6548006757
F        2.6096400585   -0.3100614345    3.7475634896
F        3.6477312876    1.5102549564    3.1498923603
Cl      -0.5747027834   -0.5010964735    0.6448927447
Cl      -1.1624344562   -1.3497246545   -2.4241854718
H        4.0605991424   -1.0142023698   -0.8411794022
H        4.1472960182    0.4676513605    0.9938402278
H        4.1660392063   -1.2602128566    1.5213091899
17   
torsion grid (-75,)
C        2.9968056551   -1.0961197584   -1.0523208285
C        2.0280349607   -0.7592948508   -0.0899155807
C        0.6902921597   -0.8047554833   -0.4946433568
C        0.4604587155   -1.1851365636   -1.8278821137
C        3.6494017170   -0.3301832546    1.5979268351
C        3.6498047552    0.1385518600    3.0497040639
N        2.6949043010   -1.4476586835   -2.3024095208
N        1.4248230971   -1.4928435290   -2.6923163421
O        2.2891705509   -0.4013812673    1.1877341335
F        4.8825758087   -0.0693233859    3.5719584253
F        2.7654746716   -0.5432238156    3.7996334249
F        3.3633311035    1.4512033096    3.1531251327
Cl      -0.5708774753   -0.4078784432    0.6160758466
Cl      -1.1605613016   -1.2785903363   -2.4468210426
H        4.0579014642   -1.0881213035   -0.8239365648
H        4.1884583253    0.4124141764    1.0013041153
H        4.1386025833   -1.3071162369    1.5431009314
17   
torsion grid (-60,)
C        2.9960258091   -1.1227486326   -1.0414798750
C        2.0311194562   -0.7398822318   -0.0926610040
C        0.6951057983   -0.7606911224   -0.5046101308
C        0.4632568508   -1.1647312844   -1.8306100609
C        3.6508891353   -0.3259406661    1.5993833005
C        3.6557168820    0.1460777632    3.0469119257
N        2.6927836076   -1.4945003727   -2.2853454809
N        1.4241960480   -1.5160442917   -2.6820777798
O        2.2950831563   -0.3572669321    1.1774840278
F        4.9373394778    0.1798170140    3.4843671779
F        2.9617980581   -0.6834725201    3.8487836511
F        3.1380343938    1.3824467792    3.1741300389
Cl      -0.5619761824   -0.3074542711    0.5889875653
Cl      -1.1560727140   -1.2305793678   -2.4573417085
H        4.0556891819   -1.1358966012   -0.8068057079
H        4.2405623539    0.3807106960    1.0066341662
H        4.1075818112   -1.3201431474    1.5614496967
17   
torsion grid (-45,)
C        2.9887368893   -1.1491837304   -1.0273442012
C        2.0240009771   -0.7185480214   -0.0992505211
C        0.6921723300   -0.7198462871   -0.5248505452
C        0.4630034668   -1.1537943398   -1.8418676109
C        3.6307450006   -0.3198565879    1.6066363765
C        3.6396070278    0.1432175653    3.0594393169
N        2.6888254929   -1.5475632725   -2.2638089996
N        1.4240657346   -1.5502461159   -2.6731544399
O        2.2843444737   -0.3037376113    1.1618305471
F        4.9174130337    0.4133496895    3.4193661193
F        3.1581420848   -0.8009482208    3.8917057892
F        2.9165018031    1.2640795705    3.2362986317
Cl      -0.5643939629   -0.2083864849    0.5431357499
Cl      -1.1513333530   -1.1987370169   -2.4832458292
H        4.0455101749   -1.1799948758   -0.7816835943
H        4.2734426530    0.3494105848    1.0256611073
H        4.0490676757   -1.3317503452    1.5769086747
17   
torsion grid (-30,)
C        2.9817656767   -1.1823389123   -1.0153017991
C        2.0206824846   -0.7072598810   -0.1052000655
C        0.6933256039   -0.6780551905   -0.5439613807
C        0.4647839466   -1.1296127350   -1.8550841717
C        3.6199847379   -0.3243989144    1.6091055577
C        3.6439488074    0.1547516400    3.0634974348
N        2.6822310128   -1.5946879850   -2.2473147397
N        1.4219412915   -1.5688017936   -2.6692552612
O        2.2794372848   -0.2760866230    1.1508235964
F        4.8621409949    0.6835737238    3.3323745657
F        3.4270704210   -0.8589514750    3.9273660752
F        2.7257222965    1.1068413979    3.3013925903
Cl      -0.5581573144   -0.1110834758    0.5017949425
Cl      -1.1438182607   -1.1400945056   -2.5121034230
H        4.0348962600   -1.2382849169   -0.7588463582
H        4.2942888712    0.3068890271    1.0221733380
H        4.0056028538   -1.3496112696    1.5949815202
17   
torsion grid (-15,)
C        2.9738313377   -1.2308306733   -0.9960072493
C        2.0190188101   -0.7136197148   -0.1022413280
C        0.6990244645   -0.6413903146   -0.5585115897
C        0.4708983238   -1.0969998897   -1.8682121880
C        3.6100713574   -0.3695588560    1.6270227210
C        3.6479221402    0.1299728249    3.0830370837
N        2.6750224515   -1.6439248620   -2.2280279476
N        1.4218562717   -1.5775831835   -2.6661824744
O        2.2757554714   -0.2809493867    1.1536810419
F        4.7349368516    0.9187278013    3.2631567707
F        3.7426408678   -0.9015780749    3.9516950266
F        2.5641586892    0.8490159912    3.4119867112
Cl      -0.5444140436   -0.0202479285    0.4658794679
Cl      -1.1287680332   -1.0567866356   -2.5456418985
H        4.0210748023   -1.3217665331   -0.7260411006
H        4.3010953143    0.2362953356    1.0333936341
H        3.9593166391   -1.4070681423    1.6228628660
17   
torsion grid (0,)
C        2.9638523145   -1.2810548814   -0.9877458407
C        2.0198807666   -0.7197698933   -0.1089697748
C        0.7089018594   -0.6003290271   -0.5814644196
C        0.4781848873   -1.0573349856   -1.8901159092
C        3.6078093219   -0.4151184535    1.6318904893
C        3.6556511645    0.1294070027    3.0754927390
N        2.6632381745   -1.6921991665   -2.2200060388
N        1.4187567595   -1.5808011032   -2.6733589665
O        2.2778819339   -0.2890019121    1.1470774278
F        4.5339002400    1.1573021554    3.1605404588
F        4.0884030347   -0.8334996502    3.9245732455
F        2.4669982909    0.5632851710    3.5136812408
Cl      -0.5211362329    0.0766413584    0.4236678406
Cl      -1.1109560627   -0.9607966397   -2.5864568942
H        4.0035082205   -1.4110901102   -0.7048232855
H        4.3033013657    0.1691618378    1.0226076781
H        3.9205113592   -1.4630157744    1.6503474121
17   
torsion grid (15,)
C        2.9583752792   -1.3265407285   -0.9623659204
C        2.0214711367   -0.7254166562   -0.1025109129
C        0.7241275267   -0.5594535749   -0.5980741884
C        0.4988280223   -1.0139413327   -1.9085529353
C        3.5985599847   -0.4510704215    1.6560434014
C        3.6400885300    0.1480762622    3.0737515971
N        2.6637963729   -1.7319188410   -2.1979623695
N        1.4323652521   -1.5759117663   -2.6733304044
O        2.2738946272   -0.3018287344    1.1568747538
F        4.2444170954    1.3590594748    3.0699570374
F        4.3830919589   -0.6566776200    3.8748951950
F        2.4287825052    0.2818619442    3.6267935854
Cl      -0.4967563876    0.1679019789    0.3828218678
Cl      -1.0735042636   -0.8615709241   -2.6325833947
H        3.9869892903   -1.4957182368   -0.6602514481
H        4.2975986081    0.1124822571    1.0315467440
H        3.8843114469   -1.5049528047    1.7096069981
17   
torsion grid (30,)
C        2.9483961089   -1.3665523941   -0.9419716752
C        2.0261890134   -0.7233971069   -0.0967804630
C        0.7394872780   -0.5178542769   -0.6046231902
C        0.5095477619   -0.9801919505   -1.9116216052
C        3.6005353727   -0.4800248977    1.6710581229
C        3.6353273693    0.1421090098    3.0702953512
N        2.6501390251   -1.7763330756   -2.1751422591
N        1.4285381785   -1.5834853783   -2.6623130861
O        2.2843473766   -0.2957351847    1.1598919366
F        3.9545755907    1.4539854152    3.0182098946
F        4.6081284688   -0.4719734952    3.7907284803
F        2.4776935548    0.0099311378    3.7316885937
Cl      -0.4630357742    0.2635862481    0.3572763683
Cl      -1.0506587096   -0.7819979742   -2.6504572982
H        3.9681179246   -1.5673772571   -0.6291074939
H        4.3185441251    0.0598314302    1.0466431503
H        3.8556869475   -1.5406303973    1.7457502347
17   
torsion grid (45,)
C        2.9374528422   -1.4083392357   -0.9313710437
C        2.0303643046   -0.7272126045   -0.0998625734
C        0.7549501185   -0.4863113159   -0.6200804046
C        0.5180938103   -0.9544217048   -1.9238878950
C        3.5974375213   -0.5165434169    1.6793886753
C        3.6265166278    0.1080828227    3.0704173109
N        2.6345197517   -1.8211634382   -2.1623567502
N        1.4231009685   -1.5946588232   -2.6607542137
O        2.2939594205   -0.2948005861    1.1541268447
F        3.6737639415    1.4545879514    3.0102368252
F        4.7509847498   -0.3104532859    3.7030675895
F        2.5682082989   -0.2481638598    3.8161171879
Cl      -0.4283671243    0.3433191023    0.3248318602
Cl      -1.0299839390   -0.7140752647   -2.6758410051
H        3.9480534899   -1.6380237297   -0.6088340815
H        4.3488952274   -0.0095498258    1.0662563131
H        3.8192796369   -1.5841155649    1.7679640152
17   
torsion grid (60,)
C        2.9282599451   -1.4266738269   -0.9224010369
C        2.0366051394   -0.6996990746   -0.1134149952
C        0.7682642483   -0.4422536116   -0.6424331564
C        0.5229488899   -0.9422142049   -1.9329083587
C        3.5967519660   -0.4944173361    1.6703285527
C        3.6287413249    0.1320480768    3.0576021678
N        2.6174981913   -1.8676054153   -2.1415041171
N        1.4127546546   -1.6257295650   -2.6489746565
O        2.3106738694   -0.2347292136    1.1268312981
F        3.4279899273    1.4626009351    3.0133790803
F        4.8482663971   -0.0918412758    3.6031228765
F        2.7011842524   -0.4048445226    3.8727280328
Cl      -0.3960100754    0.4431191400    0.2752703139
Cl      -1.0171383079   -0.6855323872   -2.6954851819
H        3.9326716040   -1.6705438665   -0.5910361894
H        4.3887669373   -0.0366213505    1.0690004853
H        3.7799942015   -1.5686044628    1.7755192422
17   
torsion grid (75,)
C        2.9187617908   -1.4443034169   -0.9127423527
C        2.0471254638   -0.6713985088   -0.1250475582
C        0.7852397305   -0.3968658210   -0.6609808230
C        0.5269653293   -0.9271656515   -1.9366827907
C        3.6041994974   -0.4687683224    1.6591680864
C        3.6502033008    0.1595543324    3.0477325821
N        2.5962648143   -1.9123258777   -2.1187211133
N        1.3981324918   -1.6537185513   -2.6331165122
O        2.3352188193   -0.1741921486    1.0997120017
F        3.2145849289    1.4311727205    3.0469742410
F        4.9270659200    0.1400334585    3.4952305896
F        2.8932810283   -0.5329291757    3.9261291162
Cl      -0.3554587275    0.5438925906    0.2307862314
Cl      -1.0062102362   -0.6524744434   -2.7067868625
H        3.9169112312   -1.7041170098   -0.5747312636
H        4.4298108514   -0.0638910281    1.0647552641
H        3.7484525672   -1.5479257731    1.7790572821
17   
torsion grid (90,)
C        2.9028160786   -1.4766645674   -0.8916843660
C        2.0481935757   -0.6645330548   -0.1250910664
C        0.8000515217   -0.3600914184   -0.6770468254
C        0.5355370649   -0.9029279355   -1.9461128622
C        3.5938989905   -0.4799689248    1.6691428310
C        3.6561945231    0.1520363751    3.0626223816
N        2.5754464096   -1.9540636039   -2.0927577139
N        1.3902327999   -1.6674599449   -2.6220746020
O        2.3396042716   -0.1556431545    1.0941916867
F        2.9884188306    1.3138004373    3.1346121317
F        4.9486233378    0.3690583166    3.3980378290
F        3.1276190565   -0.6763711376    3.9936569825
Cl      -0.3180833076    0.6301839586    0.1891895584
Cl      -0.9818489603   -0.5938698347   -2.7344132504
H        3.8896886781   -1.7612311942   -0.5408321625
H        4.4395314151   -0.1145238451    1.0778481713
H        3.7028796945   -1.5621288145    1.7976566175
17   
torsion grid (105,)
C        2.8759563248   -1.5131055771   -0.8725582775
C        2.0370128215   -0.6671023274   -0.1253163708
C        0.8078648900   -0.3273620788   -0.6993241402
C        0.5455655301   -0.8725805958   -1.9677272611
C        3.5663484390   -0.5074115441    1.6844743494
C        3.6514636698    0.1521458406    3.0727073315
N        2.5519829538   -1.9901207423   -2.0747800201
N        1.3849421390   -1.6701313614   -2.6245765044
O        2.3242923840   -0.1586355424    1.0951114728
F        2.7685338410    1.1474017820    3.2336200475
F        4.8968566819    0.6435833582    3.2706327213
F        3.4206268109   -0.7585448833    4.0494335588
Cl      -0.2907799631    0.7061328579    0.1410804755
Cl      -0.9489120859   -0.5218084246   -2.7818519871
H        3.8473305940   -1.8271657514   -0.5042577748
H        4.4179967385   -0.1712376650    1.0852389796
H        3.6430199922   -1.5897837977    1.8282966847
17   
torsion grid (120,)
C        2.8533548078   -1.5500938389   -0.8592601411
C        2.0351689887   -0.6690199373   -0.1295103795
C        0.8265279922   -0.2905260426   -0.7228794113
C        0.5612023682   -0.8353682586   -1.9907201623
C        3.5525569173   -0.5407717422    1.6939081317
C        3.6623188594    0.1606403714    3.0645006802
N        2.5281316237   -2.0240862780   -2.0623720364
N        1.3806397446   -1.6670599366   -2.6302593186
O        2.3223531301   -0.1632844732    1.0918202159
F        2.6101526975    0.9416794427    3.3409625915
F        4.7773468501    0.9284319387    3.1097566600
F        3.7722917635   -0.7581575102    4.0540597086
Cl      -0.2455275461    0.7875902401    0.0955337545
Cl      -0.9092089998   -0.4381208824   -2.8272148127
H        3.8076347811   -1.8963954042   -0.4755084947
H        4.4023988791   -0.2283011179    1.0803051407
H        3.5931597786   -1.6213725313    1.8586375767
17   
torsion grid (135,)
C        2.8361799605   -1.5850050366   -0.8371562156
C        2.0405287134   -0.6681005558   -0.1266929630
C        0.8535040243   -0.2537327714   -0.7395120297
C        0.5854076471   -0.8025682535   -2.0050425382
C        3.5417836251   -0.5739262008    1.7143670104
C        3.6604870018    0.1633635939    3.0618636968
N        2.5097920650   -2.0602032699   -2.0394332524
N        1.3827941149   -1.6692241719   -2.6257216722
O        2.3296949796   -0.1611732767    1.0934121775
F        2.5036613527    0.7024838403    3.4686401921
F        4.5694557432    1.1650000627    2.9778941890
F        4.0955904711   -0.6924692411    4.0159529816
Cl      -0.1903531295    0.8698709289    0.0539157500
Cl      -0.8595103504   -0.3629928566   -2.8645009613
H        3.7727475544   -1.9605831816   -0.4375591553
H        4.3961062676   -0.2838308315    1.0962181271
H        3.5434624383   -1.6516421690    1.8990313278
17   
torsion grid (150,)
C        2.8156271803   -1.6190332295   -0.8140703987
C        2.0442381147   -0.6698777969   -0.1194661896
C        0.8790241556   -0.2197486516   -0.7484088688
C        0.6060731035   -0.7692120723   -2.0126901446
C        3.5338846432   -0.6051658378    1.7340975080
C        3.6561669615    0.1605908360    3.0562407820
N        2.4864361741   -2.0922446621   -2.0162930184
N        1.3798769835   -1.6675057583   -2.6179808591
O        2.3373114928   -0.1657109130    1.1006788744
F        2.4648070728    0.4502181210    3.6000043782
F        4.3141843395    1.3298388852    2.8764186489
F        4.3702959902   -0.5771668512    3.9372790405
Cl      -0.1340625689    0.9453353115    0.0248072979
Cl      -0.8136185078   -0.2873616307   -2.8912918819
H        3.7341012010   -2.0235308131   -0.4007847053
H        4.3973241518   -0.3430374053    1.1155831044
H        3.5050804630   -1.6786035835    1.9413928138
17   
torsion grid (165,)
C        2.7929742253   -1.6509690924   -0.7937381111
C        2.0469324571   -0.6685830565   -0.1180679058
C        0.9015800561   -0.1895666330   -0.7616237271
C        0.6206654297   -0.7471887732   -2.0206747899
C        3.5251575820   -0.6249906447    1.7457930468
C        3.6436807763    0.1470143418    3.0564270162
N        2.4577653264   -2.1294997026   -1.9921070520
N        1.3696673782   -1.6778463207   -2.6078833244
O        2.3478173608   -0.1589250126    1.0978638303
F        2.4797579047    0.1967439123    3.7259098306
F        4.0485020290    1.4174332693    2.8417146411
F        4.5681023194   -0.4560632739    3.8394452136
Cl      -0.0792040599    1.0177587242   -0.0119101444
Cl      -0.7762023317   -0.2320570257   -2.9167492002
H        3.6950281956   -2.0786195816   -0.3676711057
H        4.4084397098   -0.3990905271    1.1404094083
H        3.4657162364   -1.6946812340    1.9679484592
17   
torsion grid (180,)
C        2.7791301814   -1.6730697313   -0.7795315332
C        2.0636845186   -0.6549686793   -0.1242315681
C        0.9300638424   -0.1585608958   -0.7751291313
C        0.6285831761   -0.7359332892   -2.0205079814
C        3.5342484745   -0.6270686817    1.7453484230
C        3.6529319274    0.1333106283    3.0590856411
N        2.4258484894   -2.1691119485   -1.9655005812
N        1.3488375098   -1.7006768041   -2.5882858660
O        2.3865276123   -0.1235995220    1.0769412642
F        2.5658626551   -0.0316921016    3.8357569748
F        3.8289270107    1.4536379921    2.8606822351
F        4.7288962656   -0.3373683948    3.7340078205
Cl      -0.0133955368    1.0927209126   -0.0500902190
Cl      -0.7561117538   -0.2012532446   -2.9240122200
H        3.6710290740   -2.1153818788   -0.3470844967
H        4.4454783861   -0.4514682543    1.1645539190
H        3.4329610077   -1.6929780722    1.9732501634
