13   
torsion grid (-165,)
C       -1.2895465005   -2.9063230576   -0.2969087897
C       -1.1146982800   -1.6629880560   -0.7636299189
C        0.1510765845   -0.9030255457   -0.4570542978
C       -2.1428248330   -0.9711398659   -1.6209121330
O       -2.4130289375   -3.6620308563   -0.5949693502
H       -0.5364401993   -3.3971687331    0.3190732353
H        0.6907572890   -0.6462501325   -1.3783330029
H       -0.0726379575    0.0433138759    0.0528254787
H        0.8314963502   -1.4765953354    0.1804793261
H       -2.4276796905   -0.0067655612   -1.1804266354
H       -1.7374082624   -0.7562744892   -2.6185422757
H       -3.0430261270   -1.5765807786   -1.7412503400
H       -2.4556068553   -4.4112679805    0.0159410690
13   
torsion grid (-150,)
C       -1.2647386389   -2.9234496314   -0.3197785824
C       -1.1085318790   -1.6701006703   -0.7661688830
C        0.1490012746   -0.8994732732   -0.4523337705
C       -2.1433957784   -0.9803475993   -1.6165728927
O       -2.3647518058   -3.7014502538   -0.6508022705
H       -0.5057351096   -3.4129089882    0.2912704710
H        0.6868068091   -0.6301901117   -1.3709912432
H       -0.0865246971    0.0405177561    0.0636559595
H        0.8344423956   -1.4709722504    0.1815046077
H       -2.4321881223   -0.0201974006   -1.1695967936
H       -1.7423148727   -0.7571962645   -2.6140390468
H       -3.0387234660   -1.5927487614   -1.7374315040
H       -2.5429135287   -4.3145790673    0.0775763139
13   
torsion grid (-135,)
C       -1.2361560611   -2.9414286881   -0.3379051425
C       -1.1002360709   -1.6806440165   -0.7699688841
C        0.1480875012   -0.8976845778   -0.4500995128
C       -2.1439156398   -0.9947908275   -1.6123435276
O       -2.3210250919   -3.7387888064   -0.6809058338
H       -0.4692410635   -3.4261632455    0.2682200500
H        0.6793106231   -0.6114831213   -1.3672322850
H       -0.0994401709    0.0333239416    0.0761814025
H        0.8419379407   -1.4676197390    0.1757151677
H       -2.4527961308   -0.0490597484   -1.1484175792
H       -1.7412540086   -0.7443421663   -2.6025003609
H       -3.0253347651   -1.6234169705   -1.7498477332
H       -2.6395044815   -4.1909985503    0.1153966041
13   
torsion grid (-120,)
C       -1.2072104707   -2.9600699188   -0.3504210735
C       -1.0899892809   -1.6935632416   -0.7713077701
C        0.1485573548   -0.8955880609   -0.4501616375
C       -2.1445729689   -1.0135780624   -1.6042537506
O       -2.2834776197   -3.7742326929   -0.6916838495
H       -0.4310269224   -3.4399739011    0.2483551694
H        0.6734071824   -0.5993268646   -1.3676197456
H       -0.1106350761    0.0301082376    0.0795395424
H        0.8502589630   -1.4591451245    0.1723713619
H       -2.4819447371   -0.0881821718   -1.1196744586
H       -1.7388876991   -0.7273758984   -2.5832505534
H       -3.0070822694   -1.6622377652   -1.7659741740
H       -2.7369638752   -4.0499310515    0.1203733045
13   
torsion grid (-105,)
C       -1.1810382200   -2.9755583898   -0.3518563983
C       -1.0782301702   -1.7083964413   -0.7746040374
C        0.1500065286   -0.8952494219   -0.4519661898
C       -2.1443838706   -1.0365293003   -1.5992722753
O       -2.2534588927   -3.8063438804   -0.6754002954
H       -0.3936206617   -3.4500510080    0.2363268749
H        0.6557971062   -0.5696679158   -1.3699630641
H       -0.1184737513    0.0137884743    0.1014427950
H        0.8694653662   -1.4597195558    0.1488129920
H       -2.5189985402   -0.1384124960   -1.0911682208
H       -1.7345636916   -0.7059844517   -2.5622180836
H       -2.9826668576   -1.7075470346   -1.7942758339
H       -2.8294017644   -3.8934250948    0.1004341022
13   
torsion grid (-90,)
C       -1.1598543470   -2.9874181980   -0.3423958827
C       -1.0672019558   -1.7223128310   -0.7741335345
C        0.1541052434   -0.8964024808   -0.4578000257
C       -2.1461663804   -1.0596795475   -1.5899384183
O       -2.2296577415   -3.8336544217   -0.6388909177
H       -0.3597082945   -3.4593817012    0.2294400181
H        0.6452800109   -0.5583972295   -1.3791218491
H       -0.1181467064    0.0054231056    0.1056035579
H        0.8860851502   -1.4569325343    0.1312646317
H       -2.5712849683   -0.2019063892   -1.0523295630
H       -1.7320474861   -0.6692361426   -2.5279801398
H       -2.9512104430   -1.7557179294   -1.8331914399
H       -2.9097595008   -3.7374802165    0.0457659285
13   
torsion grid (-75,)
C       -1.1441758689   -2.9950679874   -0.3238067089
C       -1.0581665847   -1.7343187329   -0.7705142200
C        0.1590741770   -0.8982714584   -0.4652309263
C       -2.1498767827   -1.0807887096   -1.5776937571
O       -2.2100502532   -3.8561741900   -0.5853329725
H       -0.3317671821   -3.4667359603    0.2289236959
H        0.6371804339   -0.5544670708   -1.3912930160
H       -0.1127647428    0.0001790335    0.1039540814
H        0.9016732752   -1.4543137706    0.1147001794
H       -2.6209754547   -0.2629166180   -1.0163609530
H       -1.7358463104   -0.6370261449   -2.4914579687
H       -2.9233742543   -1.7957943946   -1.8667893009
H       -2.9704978716   -3.5974005121   -0.0428057678
13   
torsion grid (-60,)
C       -1.1332829625   -2.9992223426   -0.3003182568
C       -1.0527409345   -1.7437417400   -0.7642149580
C        0.1638567674   -0.9014021765   -0.4735756261
C       -2.1560129786   -1.0964857087   -1.5624925540
O       -2.1932202868   -3.8739157131   -0.5206377102
H       -0.3109474919   -3.4699175659    0.2361597295
H        0.6331223659   -0.5603672677   -1.4052859020
H       -0.1042975079   -0.0011692694    0.0948571397
H        0.9132762105   -1.4524275944    0.1024313483
H       -2.6604282844   -0.3110080266   -0.9838094597
H       -1.7459830293   -0.6127630650   -2.4573409583
H       -2.9063414685   -1.8214355292   -1.8887069660
H       -3.0065678185   -3.4892405170   -0.1607734611
13   
torsion grid (-45,)
C       -1.1264296890   -3.0025373755   -0.2760665663
C       -1.0526742326   -1.7503271000   -0.7516292747
C        0.1646561820   -0.9023878400   -0.4787760549
C       -2.1625859051   -1.1052144105   -1.5438068420
O       -2.1765720131   -3.8902217964   -0.4574746767
H       -0.2962263644   -3.4702496562    0.2485962559
H        0.6256201093   -0.5674225460   -1.4170369782
H       -0.0982006106    0.0016508242    0.0864085678
H        0.9205479965   -1.4477813294    0.0941800834
H       -2.6611139508   -0.3139270175   -0.9680523476
H       -1.7590236048   -0.6305571501   -2.4464561776
H       -2.9215218565   -1.8241890933   -1.8663551082
H       -3.0160434801   -3.4299320253   -0.3072385155
13   
torsion grid (-30,)
C       -1.1243776008   -3.0018759986   -0.2502486454
C       -1.0557790202   -1.7537721204   -0.7387304160
C        0.1666778823   -0.9060743976   -0.4869735719
C       -2.1705479314   -1.1075426977   -1.5246449380
O       -2.1668746892   -3.8979043155   -0.3926956107
H       -0.2922781749   -3.4610861082    0.2771643283
H        0.6209859297   -0.5814427763   -1.4323125133
H       -0.0876112191    0.0041345504    0.0724158984
H        0.9265798751   -1.4477868370    0.0842545049
H       -2.6603335817   -0.3104296493   -0.9496101365
H       -1.7735483378   -0.6419258729   -2.4348759300
H       -2.9412775435   -1.8178648851   -1.8416300238
H       -3.0011830079   -3.4095254078   -0.4658205804
13   
torsion grid (-15,)
C       -1.1233961327   -3.0018984404   -0.2330109182
C       -1.0638934068   -1.7529317172   -0.7215159887
C        0.1637745468   -0.9070755071   -0.4875855273
C       -2.1788922540   -1.1016506879   -1.5033998201
O       -2.1567113682   -3.9064088799   -0.3495074309
H       -0.2917723236   -3.4495363599    0.3038569855
H        0.6175133292   -0.5982064898   -1.4386825871
H       -0.0841726975    0.0123428694    0.0595906640
H        0.9233534505   -1.4439317478    0.0885937886
H       -2.6068849535   -0.2525972272   -0.9547901600
H       -1.8001538348   -0.7075127476   -2.4546324132
H       -3.0014973985   -1.7817796950   -1.7511133359
H       -2.9568343761   -3.4419098857   -0.6415108912
13   
torsion grid (0,)
C       -1.1266664152   -2.9987630575   -0.2189578489
C       -1.0721023476   -1.7483692138   -0.7048661523
C        0.1613683035   -0.9068558129   -0.4855638033
C       -2.1868588301   -1.0941831110   -1.4846218911
O       -2.1584986023   -3.9043465459   -0.3205160714
H       -0.3019846272   -3.4349689791    0.3373324237
H        0.6103184406   -0.6042279271   -1.4410604306
H       -0.0792852881    0.0160599053    0.0589223765
H        0.9232193940   -1.4442531282    0.0870980405
H       -2.5337765737   -0.1834313667   -0.9802037032
H       -1.8411430795   -0.7949492616   -2.4822800497
H       -3.0658664741   -1.7323646596   -1.6307751360
H       -2.8882913196   -3.5024433577   -0.8182153887
13   
torsion grid (15,)
C       -1.2036936652   -2.9267176408   -0.0776433940
C       -1.0855947867   -1.7326137793   -0.6795263576
C        0.1480915495   -0.8923918050   -0.4572415895
C       -2.1251838163   -1.1519369627   -1.6073198087
O       -2.2508727970   -3.8182475205   -0.1673132795
H       -0.4474931572   -3.3037380739    0.6051603525
H        0.6714418248   -0.6951185447   -1.4024386177
H       -0.1115783918    0.0844223811   -0.0279747125
H        0.8552256069   -1.3801441416    0.2204133810
H       -2.4048527928   -0.1413553461   -1.2846112437
H       -1.7402663945   -1.0639832141   -2.6315973747
H       -3.0522205897   -1.7342901214   -1.6529697653
H       -2.8125700092   -3.5769817469   -0.9206452250
13   
torsion grid (30,)
C       -1.2161869036   -2.9159172054   -0.0726069665
C       -1.0925005323   -1.7193906051   -0.6676780551
C        0.1507163137   -0.8911295618   -0.4560905051
C       -2.1363995934   -1.1395155478   -1.5907183414
O       -2.2843217729   -3.7879416060   -0.1654471652
H       -0.4700455956   -3.2946466534    0.6211257248
H        0.6753210625   -0.7101775913   -1.4037751029
H       -0.0993706876    0.0930072147   -0.0385039327
H        0.8530323103   -1.3789250614    0.2265607655
H       -2.3522564321   -0.1000970396   -1.3151404062
H       -1.7903987871   -1.1249285869   -2.6328387453
H       -3.0877772164   -1.6807017898   -1.5581688301
H       -2.7093795846   -3.6827324822   -1.0304260743
13   
torsion grid (45,)
C       -1.2355056471   -2.9004131044   -0.0650168890
C       -1.0982332525   -1.7076709475   -0.6634755496
C        0.1562864343   -0.8945500813   -0.4625821644
C       -2.1436878804   -1.1229089237   -1.5803709706
O       -2.3326117630   -3.7441265450   -0.1555559765
H       -0.4953117785   -3.2838529680    0.6338037554
H        0.6773064804   -0.7244340723   -1.4141134720
H       -0.0811974302    0.0943517307   -0.0494263975
H        0.8559830083   -1.3873275702    0.2191070637
H       -2.3470846849   -0.0799707544   -1.3086219494
H       -1.8047643190   -1.1157079921   -2.6249944324
H       -3.0941816800   -1.6625328808   -1.5322742896
H       -2.6165649067   -3.8039524069   -1.0801863626
13   
torsion grid (60,)
C       -1.2555130524   -2.8847800140   -0.0638152697
C       -1.1047492438   -1.6950477808   -0.6635868735
C        0.1596802262   -0.8974923601   -0.4654949947
C       -2.1494129005   -1.1026659569   -1.5752658504
O       -2.3813903812   -3.6977363862   -0.1565448229
H       -0.5132438410   -3.2805093972    0.6275840284
H        0.6782576009   -0.7338542885   -1.4192988813
H       -0.0659224238    0.0941288900   -0.0527120470
H        0.8554301804   -1.3982697031    0.2143554633
H       -2.3402522489   -0.0563644015   -1.3074989260
H       -1.8142003614   -1.1033112319   -2.6211703469
H       -3.0988770755   -1.6411701137   -1.5161737250
H       -2.5293738985   -3.9360237720   -1.0840853889
13   
torsion grid (75,)
C       -1.2773176594   -2.8704101326   -0.0661908736
C       -1.1094409027   -1.6863119838   -0.6713044532
C        0.1633882584   -0.9023104342   -0.4735787486
C       -2.1506962669   -1.0800223300   -1.5761092133
O       -2.4308649999   -3.6494307828   -0.1580785334
H       -0.5305791617   -3.2805921937    0.6136044394
H        0.6795162594   -0.7416100720   -1.4290202581
H       -0.0517094879    0.0905202440   -0.0583701348
H        0.8557759421   -1.4113409080    0.2035060231
H       -2.3652940134   -0.0476882048   -1.2735444665
H       -1.7951779412   -1.0360952545   -2.6141941652
H       -3.0862155147   -1.6433304600   -1.5517092150
H       -2.4609519313   -4.0744740036   -1.0287180351
13   
torsion grid (90,)
C       -1.2976679802   -2.8583869243   -0.0757408902
C       -1.1137530457   -1.6787282456   -0.6840622166
C        0.1659267747   -0.9074701109   -0.4806740617
C       -2.1497037176   -1.0563683515   -1.5830945215
O       -2.4728691242   -3.6059422249   -0.1683027060
H       -0.5457724386   -3.2851742271    0.5894548532
H        0.6789316154   -0.7408583773   -1.4366556811
H       -0.0394207665    0.0826687891   -0.0543037471
H        0.8562680633   -1.4290145309    0.1889573427
H       -2.3987271683   -0.0450423570   -1.2380293879
H       -1.7676057740   -0.9543710391   -2.6073609438
H       -3.0676597502   -1.6466904617   -1.6078746683
H       -2.4075141074   -4.2077184547   -0.9260210063
13   
torsion grid (105,)
C       -1.3138763188   -2.8511854846   -0.0948292596
C       -1.1165445959   -1.6725237042   -0.7004701026
C        0.1676873000   -0.9118031332   -0.4861772502
C       -2.1472695468   -1.0338282538   -1.5936894154
O       -2.5042385627   -3.5715460224   -0.1901685972
H       -0.5597667742   -3.2944919346    0.5578018406
H        0.6786443559   -0.7325306490   -1.4408904885
H       -0.0300954950    0.0725141473   -0.0428409601
H        0.8567152351   -1.4477810245    0.1734827762
H       -2.4361624919   -0.0490926048   -1.2046991337
H       -1.7395141971   -0.8682288566   -2.5993891931
H       -3.0450809043   -1.6491108249   -1.6735112907
H       -2.3700654236   -4.3234881707   -0.7883265602
13   
torsion grid (120,)
C       -1.3245862815   -2.8501737071   -0.1233110383
C       -1.1169074458   -1.6683606484   -0.7192244574
C        0.1678834298   -0.9136823406   -0.4875563170
C       -2.1431741310   -1.0148884823   -1.6069610222
O       -2.5240886773   -3.5489550150   -0.2261261709
H       -0.5722228080   -3.3077745962    0.5215551153
H        0.6740487402   -0.7045674062   -1.4387372768
H       -0.0270201363    0.0564620147   -0.0123722470
H        0.8607563429   -1.4689728391    0.1520596547
H       -2.4605570466   -0.0516945894   -1.1868985692
H       -1.7185370249   -0.8029438806   -2.5967878271
H       -3.0262252270   -1.6443153779   -1.7289349376
H       -2.3489371537   -4.4132296478   -0.6304125410
13   
torsion grid (135,)
C       -1.3292278286   -2.8559950720   -0.1584509684
C       -1.1160536429   -1.6651666281   -0.7340624304
C        0.1677635855   -0.9132289480   -0.4878551956
C       -2.1403934469   -0.9988039468   -1.6145447898
O       -2.5320427801   -3.5408013452   -0.2779774531
H       -0.5794845311   -3.3285813692    0.4778957442
H        0.6795076676   -0.6949185835   -1.4341302322
H       -0.0272028913    0.0524844832   -0.0032670294
H        0.8574866408   -1.4752449822    0.1495089173
H       -2.4843570309   -0.0575091406   -1.1662821249
H       -1.7040433035   -0.7440040130   -2.5890533444
H       -3.0091954912   -1.6395147544   -1.7749256947
H       -2.3423243665   -4.4718122161   -0.4705630331
13   
torsion grid (150,)
C       -1.3283447503   -2.8638964534   -0.1967066860
C       -1.1174959476   -1.6617074988   -0.7488236032
C        0.1653808880   -0.9148087369   -0.4840258092
C       -2.1398265620   -0.9836897873   -1.6234788460
O       -2.5240465844   -3.5523054430   -0.3425856012
H       -0.5817813715   -3.3417093525    0.4384120131
H        0.6821154220   -0.6791410537   -1.4235720465
H       -0.0309902518    0.0418661074    0.0178620797
H        0.8529148359   -1.4882670236    0.1457633343
H       -2.4939130233   -0.0535169195   -1.1597953185
H       -1.6982038226   -0.7073880908   -2.5897622985
H       -3.0037948147   -1.6254514549   -1.8050128261
H       -2.3415814370   -4.5030808090   -0.3119820266
13   
torsion grid (165,)
C       -1.3228731101   -2.8751205158   -0.2324259034
C       -1.1173500186   -1.6605048985   -0.7584979091
C        0.1622839642   -0.9135179060   -0.4787391067
C       -2.1393784838   -0.9743669400   -1.6275797392
O       -2.5035694627   -3.5772599954   -0.4197841837
H       -0.5771731259   -3.3590325536    0.3978859834
H        0.6845399149   -0.6656164668   -1.4122151674
H       -0.0388522234    0.0368698593    0.0333650840
H        0.8484340844   -1.4924520046    0.1477078760
H       -2.4935468987   -0.0483462642   -1.1555141697
H       -1.6982805818   -0.6896611190   -2.5917181657
H       -3.0038078806   -1.6132993570   -1.8171308736
H       -2.3599935971   -4.5007883545   -0.1690613594
13   
torsion grid (180,)
C       -1.3097950871   -2.8899568777   -0.2669396967
C       -1.1173033664   -1.6605056280   -0.7624684581
C        0.1562266806   -0.9088523647   -0.4679055633
C       -2.1409210746   -0.9693534876   -1.6258751828
O       -2.4637325581   -3.6183354648   -0.5107175575
H       -0.5614454091   -3.3782448375    0.3562966637
H        0.6884241364   -0.6563544667   -1.3946788552
H       -0.0550607669    0.0394816670    0.0438802113
H        0.8385828790   -1.4862998672    0.1640772659
H       -2.4594156877   -0.0234455399   -1.1682573724
H       -1.7158456331   -0.7192139063   -2.6068476013
H       -3.0250803211   -1.5898571337   -1.7826927583
H       -2.3942012113   -4.4721586089   -0.0615787299
