24   
torsion grid (-165,)
C       -0.0054266191   -1.6022307177    0.6036048123
C        0.9446852237   -0.4999846869    0.0891677597
C        2.0039983311   -1.1678587571   -0.8161243512
C        1.6230593458    0.1508410160    1.3146620288
C        0.1043897525    0.5082625647   -0.6961108116
C        0.4480687979    1.6774263002   -1.2646754575
C       -0.5895974647    2.5053757317   -1.9906045269
C        1.8239928379    2.3045264615   -1.2572174540
H       -0.7760907319   -1.1824271383    1.2601044986
H        0.5456187826   -2.3595064419    1.1721461204
H       -0.5099688202   -2.1071126169   -0.2281276220
H        2.7300667978   -0.4479352117   -1.2023936089
H        1.5278238437   -1.6511958331   -1.6756858440
H        2.5565282644   -1.9337343136   -0.2583127849
H        2.3493540793    0.9157349761    1.0308460602
H        2.1516087414   -0.6078706391    1.9043787042
H        0.8771737052    0.6244710429    1.9616968521
H       -0.9420354218    0.2199401089   -0.8062454101
H       -0.6520459571    3.5162154858   -1.5657344838
H       -0.3228555098    2.6269828643   -3.0487640720
H       -1.5839810768    2.0534308886   -1.9390667573
H        2.6184471991    1.6161836222   -0.9734825125
H        2.0650944497    2.6977627077   -2.2524914275
H        1.8536205498    3.1587156912   -0.5679150800
24   
torsion grid (-150,)
C        0.0563028540   -1.8065142848    0.3734234865
C        0.9872665737   -0.7045601276   -0.1750755744
C        2.0207088449   -1.3691856449   -1.1123128171
C        1.7048149571   -0.0494204479    1.0245580407
C        0.1228092659    0.2933892907   -0.9459623028
C        0.4317359685    1.4951237094   -1.4640981898
C       -0.6183316440    2.3022023297   -2.1950125788
C        1.7858786402    2.1704916447   -1.3910343259
H       -0.6954289558   -1.3846489613    1.0502566252
H        0.6263453111   -2.5591600438    0.9292947748
H       -0.4718406230   -2.3175831418   -0.4396799679
H        2.7256973027   -0.6420397041   -1.5245635132
H        1.5209724537   -1.8606101660   -1.9537141472
H        2.5995117130   -2.1271869587   -0.5704841372
H        2.4406580219    0.6949786432    0.7136488211
H        2.2321668307   -0.8107653777    1.6117240141
H        0.9836475341    0.4469048758    1.6826158701
H       -0.9050838997   -0.0385568272   -1.0992235505
H       -0.7273386983    3.2996196135   -1.7481517899
H       -0.3303181789    2.4589989839   -3.2428854294
H       -1.5967297765    1.8140292024   -2.1783637161
H        2.6173854225    1.4655377343   -1.3611530351
H        1.9351020315    2.8144235179   -2.2650765443
H        1.8571011223    2.8160844100   -0.5066277358
24   
torsion grid (-135,)
C        0.0489231613   -1.7811285872    0.3906566961
C        0.9889742994   -0.7062246460   -0.1947795504
C        1.9931571555   -1.3992459637   -1.1435196682
C        1.7473096706   -0.0493798540    0.9776151262
C        0.1304844451    0.2859529399   -0.9782270902
C        0.4312557850    1.5005421883   -1.4704685734
C       -0.6008964675    2.2801458834   -2.2546011411
C        1.7712288479    2.2000161395   -1.3326906384
H       -0.6783898582   -1.3341387569    1.0779832056
H        0.6164899002   -2.5374345552    0.9441197100
H       -0.5082136633   -2.2929335280   -0.4023649822
H        2.6899171932   -0.6810853994   -1.5859004470
H        1.4702776468   -1.9039036735   -1.9628019308
H        2.5818519053   -2.1497948540   -0.6017756559
H        2.5284582769    0.6331312253    0.6375084267
H        2.2299041461   -0.8197123244    1.5906270584
H        1.0612990819    0.5137676423    1.6193168831
H       -0.8781589176   -0.0741142890   -1.1862281566
H       -0.7677501586    3.2698848961   -1.8086256072
H       -0.2571451240    2.4546862007   -3.2827771917
H       -1.5622440561    1.7607129815   -2.2988593371
H        2.6150086253    1.5312484306   -1.5204282288
H        1.8463662796    3.0221164187   -2.0518863919
H        1.9006494022    2.6345958497   -0.3353971647
24   
torsion grid (-120,)
C       -0.0582057026   -1.7998184087    0.6241878267
C        0.9182001500   -0.7961812114   -0.0254320247
C        1.8760932779   -1.5702880984   -0.9597453356
C        1.7312091181   -0.1276186911    1.1019042832
C        0.0921644538    0.1826651471   -0.8571265130
C        0.3977982586    1.3951301883   -1.3517191507
C       -0.5953215877    2.1279789237   -2.2266344427
C        1.7166468955    2.1228446765   -1.1542403482
H       -0.7521052600   -1.2891035656    1.3015192390
H        0.4851787836   -2.5553446373    1.2024831098
H       -0.6522611077   -2.3214566300   -0.1348573866
H        2.5865925785   -0.8935755012   -1.4451044739
H        1.3199762637   -2.0913685522   -1.7463602833
H        2.4490429080   -2.3171493025   -0.3961928122
H        2.5707829600    0.4557263464    0.7191896206
H        2.1460839991   -0.8951069269    1.7655818438
H        1.0999501108    0.5344337222    1.7041924480
H       -0.8906414307   -0.2051529703   -1.1297693846
H       -0.8358151520    3.1143755850   -1.8079613680
H       -0.1737462190    2.3066995794   -3.2248325354
H       -1.5290308669    1.5711194675   -2.3452067274
H        2.5659968591    1.5350471655   -1.5187435903
H        1.7192835548    3.0650498427   -1.7110176623
H        1.9035543873    2.3670339346   -0.1054315982
24   
torsion grid (-105,)
C       -0.0417863072   -1.9262275998    0.4403023620
C        0.8625809828   -0.7291590696    0.0783042063
C        2.0480338364   -1.2643088369   -0.7519511503
C        1.3856074848   -0.0975987265    1.3884036485
C        0.0098211180    0.2840803733   -0.6841852980
C        0.3690556189    1.3614125738   -1.4041535311
C       -0.6879315745    2.2395677724   -2.0364731215
C        1.7938546867    1.8254211432   -1.6457620202
H       -0.8973867129   -1.6059657759    1.0457802791
H        0.5135928859   -2.6764061913    1.0140952105
H       -0.4311418744   -2.4109355857   -0.4622804915
H        2.8057293186   -0.5003247045   -0.9361261185
H        1.7062929493   -1.6433065806   -1.7210287814
H        2.5373381309   -2.0881171193   -0.2190532970
H        2.0381603508    0.7578401677    1.1899188987
H        1.9586743525   -0.8309020306    1.9691266936
H        0.5552636304    0.2541097311    2.0097940134
H       -1.0633642349    0.1077521038   -0.5980550433
H       -0.6385860876    3.2590990497   -1.6316159672
H       -0.5304610745    2.3256672645   -3.1200399705
H       -1.6973834048    1.8536193049   -1.8691343505
H        2.2993112004    1.1993039811   -2.3893671290
H        1.8089505432    2.8545278463   -2.0173341964
H        2.4007904150    1.7935999915   -0.7369665376
24   
torsion grid (-90,)
C        0.1966437987   -1.7920360527    0.1919668588
C        1.0814133918   -0.6013179720   -0.2337636902
C        2.2251368656   -1.1509830147   -1.1129237701
C        1.6604781029    0.0496923129    1.0425744353
C        0.1956645063    0.3891734989   -0.9899202975
C        0.5210681197    1.4870255622   -1.6948433336
C       -0.5582905958    2.3144295632   -2.3571893720
C        1.9239389986    2.0151789905   -1.9155612095
H       -0.6289774109   -1.4609407162    0.8322598120
H        0.7796387164   -2.5322383508    0.7511058839
H       -0.2352007328   -2.2927576556   -0.6820870467
H        2.9435308721   -0.3778359901   -1.3929533286
H        1.8282274492   -1.5895021292   -2.0346776795
H        2.7740678209   -1.9325663117   -0.5741394448
H        2.3120509560    0.8964526567    0.8097769238
H        2.2490257698   -0.6793174612    1.6129382830
H        0.8565803087    0.4175142040    1.6888244712
H       -0.8697029762    0.1610341069   -0.9338035277
H       -0.5773600830    3.3320616017   -1.9452894590
H       -0.3683034272    2.4166286973   -3.4341629903
H       -1.5509361289    1.8742284925   -2.2277961145
H        2.3679924269    1.5800199053   -2.8198797391
H        1.9084933346    3.1015811696   -2.0537806059
H        2.5982289707    1.7956154610   -1.0866684889
24   
torsion grid (-75,)
C        0.1700922455   -1.9933130972   -0.0175100387
C        1.0904706112   -0.8309714173   -0.4466385724
C        2.1978980874   -1.4132036778   -1.3522376469
C        1.7107756551   -0.2175782565    0.8287907848
C        0.2301141128    0.1931713749   -1.1883501797
C        0.5752477926    1.3238745615   -1.8292052514
C       -0.4826729359    2.1722031323   -2.5002656318
C        1.9756652772    1.8756391109   -1.9758178693
H       -0.6325934219   -1.6384661166    0.6390214728
H        0.7347282544   -2.7592974155    0.5254600637
H       -0.2933824273   -2.4702476732   -0.8886418225
H        2.9219616320   -0.6568138679   -1.6631339573
H        1.7647155544   -1.8509898967   -2.2577970249
H        2.7465743619   -2.2015163278   -0.8228286932
H        2.3961624642    0.6028062656    0.6008388206
H        2.2722337731   -0.9777650313    1.3854748184
H        0.9294370907    0.1770878603    1.4867734523
H       -0.8348393785   -0.0437345515   -1.1903287106
H       -0.5215202581    3.1746351723   -2.0539032262
H       -0.2548580148    2.3128623414   -3.5654255174
H       -1.4774218847    1.7248925418   -2.4220567950
H        2.3515502973    1.7018723018   -2.9928833132
H        1.9758773752    2.9610259947   -1.8194795257
H        2.6920372936    1.4389167549   -1.2815636716
24   
torsion grid (-60,)
C       -0.1138257102   -1.8821226920    0.3949295970
C        0.8638643796   -0.7859048895   -0.0795123635
C        1.9563396438   -1.4629946590   -0.9367983396
C        1.4927979207   -0.1360462257    1.1732009517
C        0.0618331802    0.2308412142   -0.8938979411
C        0.4528044750    1.3536986795   -1.5223357524
C       -0.5557835028    2.1975980694   -2.2709446411
C        1.8571841194    1.9084330933   -1.5770399611
H       -0.9095934833   -1.4573859481    1.0174508605
H        0.4080311225   -2.6415198615    0.9876320827
H       -0.5849717357   -2.3851440349   -0.4572219398
H        2.7100494153   -0.7527316650   -1.2850561756
H        1.5148530668   -1.9369353733   -1.8198095590
H        2.4710311460   -2.2383138075   -0.3563959994
H        2.2238661123    0.6347872185    0.9176444382
H        2.0038413043   -0.8930471620    1.7804098467
H        0.7210842622    0.3321594218    1.7932559978
H       -1.0007202011   -0.0047918991   -0.9694959695
H       -0.5944270031    3.2163494928   -1.8628600159
H       -0.2776869965    2.2949637561   -3.3288229777
H       -1.5621818174    1.7729431414   -2.2215767909
H        2.1996737055    1.9720456836   -2.6182068150
H        1.8765951353    2.9316669484   -1.1799859241
H        2.5860653701    1.3213081954   -1.0218930893
24   
torsion grid (-45,)
C       -0.0026700355   -1.8033473525    0.4219280843
C        0.9558836222   -0.7188729393   -0.1141772867
C        2.0315358840   -1.4173006098   -0.9760831840
C        1.6117687662   -0.0241829053    1.0994942257
C        0.1290618771    0.2603796141   -0.9489848799
C        0.4837713188    1.4052428651   -1.5587685914
C       -0.5418220741    2.2067652263   -2.3301404244
C        1.8612585024    2.0283365985   -1.5597519411
H       -0.7853693511   -1.3615069191    1.0490706256
H        0.5384899610   -2.5392086861    1.0269164996
H       -0.4917260015   -2.3381283156   -0.4003112051
H        2.7643422495   -0.7109664553   -1.3744254642
H        1.5709915441   -1.9310445046   -1.8264746026
H        2.5740029537   -2.1625840197   -0.3817080805
H        2.3412739509    0.7323820242    0.8017796398
H        2.1315760102   -0.7605475049    1.7242792961
H        0.8539245937    0.4698009181    1.7167233342
H       -0.9171851324   -0.0282535225   -1.0599324672
H       -0.6080048997    3.2331174852   -1.9448856494
H       -0.2602254232    2.2875836470   -3.3883546155
H       -1.5377736064    1.7586964356   -2.2753865950
H        2.1238250512    2.3665806640   -2.5696578063
H        1.8756168277    2.9216899677   -0.9210339248
H        2.6477375375    1.3597786034   -1.2139912629
24   
torsion grid (-30,)
C        0.1641851106   -1.6030330298    0.2259083117
C        1.1012312664   -0.5247629009   -0.3581436844
C        2.1357612062   -1.2267342137   -1.2664686460
C        1.8161068432    0.1708835189    0.8201953872
C        0.2431975513    0.4484471595   -1.1670149471
C        0.5607405739    1.6257978715   -1.7336781266
C       -0.4842797476    2.4112779050   -2.4947389495
C        1.9193207926    2.2939816722   -1.6896175678
H       -0.5886677556   -1.1545105915    0.8840985110
H        0.7293155404   -2.3371600227    0.8108018202
H       -0.3625843104   -2.1411650043   -0.5704514422
H        2.8454047822   -0.5181058596   -1.7021815298
H        1.6372327744   -1.7464161895   -2.0914392754
H        2.7092888153   -1.9668510915   -0.6951234738
H        2.5532994473    0.9037910060    0.4858963774
H        2.3411596473   -0.5699737496    1.4350007846
H        1.0934549209    0.6903000083    1.4585045434
H       -0.7880040237    0.1197308756   -1.3040462036
H       -0.5842289718    3.4268837102   -2.0885584096
H       -0.1973421577    2.5229267614   -3.5486640457
H       -1.4665602600    1.9322373804   -2.4564121319
H        2.0762448247    2.8992299155   -2.5893409973
H        1.9837433534    2.9834835038   -0.8376942877
H        2.7472846846    1.5896012437   -1.6071656572
24   
torsion grid (-15,)
C        0.1021744537   -1.6266076443    0.3421131181
C        1.0561284218   -0.5845227012   -0.2790017758
C        2.0703114583   -1.3262365218   -1.1789878350
C        1.8003537443    0.1235837536    0.8725287508
C        0.2140582528    0.3744493443   -1.1196958711
C        0.5309157916    1.5597530774   -1.6698787844
C       -0.4867097349    2.3080809663   -2.5019761378
C        1.8753330723    2.2541637226   -1.5540187957
H       -0.6328917595   -1.1447163906    0.9968443233
H        0.6576879075   -2.3585940607    0.9388090698
H       -0.4458349718   -2.1725627336   -0.4343182354
H        2.7772908894   -0.6335675156   -1.6450517140
H        1.5565115789   -1.8669965254   -1.9807784368
H        2.6471510970   -2.0527852723   -0.5935479529
H        2.5889063590    0.7871059643    0.5124037903
H        2.2710648628   -0.6188033489    1.5278181985
H        1.1074540751    0.7184202315    1.4771601148
H       -0.7964583398    0.0142200240   -1.3179826447
H       -0.6479452554    3.3207785366   -2.1084966297
H       -0.1321718351    2.4267390799   -3.5344221937
H       -1.4526437458    1.7960240765   -2.5285948364
H        1.9654883917    3.0451250624   -2.3052727937
H        1.9872889565    2.7391511117   -0.5772806470
H        2.7184482178    1.5706447382   -1.6784810064
24   
torsion grid (0,)
C        0.0858947780   -1.5817296103    0.4073656015
C        1.0576126548   -0.5862568508   -0.2615058824
C        2.0255469572   -1.3750850565   -1.1728715547
C        1.8603261850    0.1147519140    0.8535524646
C        0.2279623509    0.3668987961   -1.1192353757
C        0.5298033931    1.5661364031   -1.6473416313
C       -0.4649589685    2.2704767792   -2.5435627338
C        1.8460425025    2.3033910536   -1.4699920405
H       -0.6127808006   -1.0608946694    1.0719716251
H        0.6325583762   -2.3212013684    1.0030618476
H       -0.5030664258   -2.1233142773   -0.3416044720
H        2.7310857532   -0.7046711382   -1.6739085653
H        1.4766259347   -1.9216926419   -1.9471101319
H        2.6039240840   -2.1015255589   -0.5885643133
H        2.6978768691    0.6947057221    0.4613112600
H        2.2771176468   -0.6337623136    1.5374014679
H        1.2214596471    0.7865513876    1.4367112645
H       -0.7538847579   -0.0309105620   -1.3805736302
H       -0.7060805302    3.2692791123   -2.1557896571
H       -0.0443354537    2.4182352195   -3.5472104103
H       -1.3982641397    1.7093517540   -2.6437787408
H        1.8428649453    3.2391967278   -2.0368883022
H        2.0259553991    2.5696989766   -0.4247692589
H        2.7011661928    1.7087330277   -1.8079105409
24   
torsion grid (15,)
C        0.1402213384   -1.5901980062    0.2571038653
C        1.0540731910   -0.4175804760   -0.1571388469
C        2.2363139729   -0.9982009532   -0.9611861198
C        1.5798871808    0.2679575869    1.1243611941
C        0.2107966948    0.5655874829   -0.9681524996
C        0.5808827404    1.6112175815   -1.7282428613
C       -0.4660599433    2.4645060608   -2.4092368483
C        2.0094417374    2.0605869583   -1.9739523241
H       -0.7139671430   -1.2363418221    0.8456385985
H        0.6890132643   -2.3175884809    0.8655247787
H       -0.2512262762   -2.1126716283   -0.6232392205
H        2.9976467977   -0.2476737795   -1.1822018044
H        1.8918006677   -1.4207065089   -1.9110901446
H        2.7216004475   -1.7984879339   -0.3900906108
H        2.2393225812    1.1087888475    0.8898992133
H        2.1463508247   -0.4431392250    1.7382147383
H        0.7511637009    0.6531103712    1.7278131797
H       -0.8636097179    0.3941230833   -0.8876806503
H       -0.4211832762    3.4990836920   -2.0440523271
H       -0.2935640965    2.5078302553   -3.4930928331
H       -1.4781220003    2.0858565633   -2.2410289604
H        2.0281483722    3.0755563866   -2.3833662669
H        2.6199781489    2.0491106364   -1.0680533658
H        2.5047463196    1.4187490037   -2.7118329036
24   
torsion grid (30,)
C        0.1357608100   -1.5900287824    0.2880240415
C        1.0577546728   -0.4394173030   -0.1678607315
C        2.2090586376   -1.0528774637   -0.9934770671
C        1.6204093160    0.2548538563    1.0928900763
C        0.2140215389    0.5343650678   -0.9909541667
C        0.5811180117    1.5987824652   -1.7260497963
C       -0.4611096073    2.4155794611   -2.4574203153
C        1.9982788625    2.0967889008   -1.9202373315
H       -0.6952385075   -1.2126920381    0.8949270632
H        0.6886393924   -2.3187779299    0.8910625247
H       -0.2890918441   -2.1178123155   -0.5734387763
H        2.9477308963   -0.3075871084   -1.2956461609
H        1.8230621944   -1.5287091360   -1.9012463612
H        2.7313071183   -1.8170473630   -0.4053941598
H        2.3009008905    1.0726925901    0.8406091316
H        2.1733620898   -0.4621663113    1.7119742997
H        0.8098657929    0.6728876032    1.6990515933
H       -0.8561698076    0.3242864906   -0.9633628666
H       -0.4772267982    3.4490109025   -2.0868800338
H       -0.2333523589    2.4716094978   -3.5304690468
H       -1.4646794257    1.9960141453   -2.3450040399
H        2.0035024502    3.1808455560   -2.0790526030
H        2.6558621464    1.8746642522   -1.0795753761
H        2.4452293925    1.6504796353   -2.8182479451
24   
torsion grid (45,)
C        0.1061362083   -1.7525351929    0.0205536803
C        1.0716963190   -0.6388073359   -0.4372950243
C        2.1913270666   -1.2965621602   -1.2737048774
C        1.6668898517    0.0246454199    0.8249512252
C        0.2647237452    0.3658128101   -1.2613140936
C        0.6595017175    1.4593992174   -1.9370250565
C       -0.3517458566    2.2953755290   -2.6905597855
C        2.0746564616    1.9797721724   -2.0477925258
H       -0.7075899003   -1.3425205418    0.6296370800
H        0.6313971540   -2.5026165443    0.6220810400
H       -0.3414281241   -2.2634129473   -0.8395838435
H        2.9438774560   -0.5758446932   -1.6014784451
H        1.7753047862   -1.7723868798   -2.1680397925
H        2.7027386414   -2.0678768417   -0.6852133404
H        2.3824454193    0.8132748058    0.5787117557
H        2.1877780863   -0.7197683867    1.4393787617
H        0.8757382392    0.4741796628    1.4342108615
H       -0.8036599877    0.1482195558   -1.2995288956
H       -0.3864654699    3.3188658762   -2.2944492535
H       -0.0787128211    2.3795644968   -3.7510166893
H       -1.3583967347    1.8724406151   -2.6317127692
H        2.0916684126    3.0667022054   -1.9009968281
H        2.7655904694    1.5332942900   -1.3348224615
H        2.4694680846    1.7978715644   -3.0564071743
24   
torsion grid (60,)
C       -0.0083621294   -1.5028223797    0.3636434061
C        0.9863064613   -0.4410241650   -0.1519698844
C        2.0918440696   -1.1719670995   -0.9460669246
C        1.5934010214    0.2758423055    1.0746223242
C        0.2084987276    0.5309334224   -1.0411104419
C        0.6170256576    1.6222074035   -1.7125532105
C       -0.3693281274    2.4250062921   -2.5325895461
C        2.0212975440    2.1786001790   -1.7505162269
H       -0.8143768675   -1.0386489637    0.9433385816
H        0.4958541273   -2.2295170363    1.0101704524
H       -0.4645730199   -2.0517302187   -0.4680764549
H        2.8563666137   -0.4863754963   -1.3194896024
H        1.6655281336   -1.6942234150   -1.8090432889
H        2.5903951728   -1.9146840203   -0.3114545153
H        2.3357538959    1.0258684642    0.7914565382
H        2.0854564481   -0.4483855992    1.7351315403
H        0.8122107234    0.7838004518    1.6499148223
H       -0.8507716056    0.2883566508   -1.1378674442
H       -0.4150147967    3.4650321060   -2.1830234299
H       -0.0639900503    2.4626693883   -3.5867313604
H       -1.3781014299    2.0057786591   -2.4853397663
H        2.0341016530    3.2035345394   -1.3571844504
H        2.7432863444    1.5948913606   -1.1828986189
H        2.3776410402    2.2385530361   -2.7870800217
24   
torsion grid (75,)
C        0.0952068418   -1.4448076640    0.3674446421
C        1.0742073441   -0.3983144089   -0.2058813895
C        2.1607972403   -1.1499924158   -1.0071678849
C        1.7118859959    0.3547340340    0.9822985730
C        0.2735866308    0.5405386711   -1.1096426893
C        0.6477303554    1.6557461263   -1.7612799997
C       -0.3535621283    2.4205614598   -2.5989286484
C        2.0261826311    2.2776922822   -1.7487442247
H       -0.6964207078   -0.9635666235    0.9530045869
H        0.6171454250   -2.1509769123    1.0226300696
H       -0.3813815220   -2.0195685825   -0.4349065393
H        2.9072816314   -0.4711411651   -1.4274869479
H        1.7130580728   -1.7050570432   -1.8382068369
H        2.6850574270   -1.8663836838   -0.3629998754
H        2.4560757928    1.0865309818    0.6602586817
H        2.2101437194   -0.3519195180    1.6569367035
H        0.9466538961    0.8887913051    1.5554878547
H       -0.7690675441    0.2463973268   -1.2385137024
H       -0.4265759634    3.4647363978   -2.2663417424
H       -0.0425273010    2.4488214159   -3.6515824956
H       -1.3522920873    1.9780044111   -2.5498255776
H        2.0376645729    3.1713280678   -1.1106290205
H        2.8047645475    1.6067650095   -1.3887860885
H        2.3055684130    2.6053497594   -2.7572541363
24   
torsion grid (90,)
C        0.2557170596   -1.2991136179    0.0852200698
C        1.2193383778   -0.2580709314   -0.5226800469
C        2.2633127704   -1.0096516313   -1.3790806287
C        1.9192961329    0.4763346578    0.6408650827
C        0.3919256275    0.6901881051   -1.3907833245
C        0.7335936049    1.8441226349   -1.9906006608
C       -0.2834622312    2.6060611209   -2.8111952275
C        2.0957233048    2.5049340951   -1.9305725145
H       -0.5043136736   -0.8140478547    0.7083131483
H        0.7985632793   -2.0156304175    0.7115874899
H       -0.2619052785   -1.8629205418   -0.6992800685
H        2.9900464734   -0.3276020574   -1.8289946299
H        1.7754452756   -1.5579060754   -2.1918413719
H        2.8161837855   -1.7314670642   -0.7655027132
H        2.6786140195    1.1795469455    0.2927438310
H        2.4153630918   -0.2460343830    1.3000949678
H        1.1921199443    1.0366610070    1.2381236509
H       -0.6366359088    0.3617630899   -1.5469901779
H       -0.3902367431    3.6360463194   -2.4449371133
H        0.0364403983    2.6786015369   -3.8590482323
H       -1.2690650158    2.1329543569   -2.7862724976
H        2.1597023722    3.1929195568   -1.0779773324
H        2.9132571826    1.7896658210   -1.8306736498
H        2.2774244562    3.0943230056   -2.8356758774
24   
torsion grid (105,)
C        0.1892617100   -1.3075059573    0.2403841658
C        1.1696897125   -0.3059417905   -0.4057815924
C        2.1940638330   -1.0988573325   -1.2488454938
C        1.8979389776    0.4442864152    0.7290385256
C        0.3583905177    0.6216180016   -1.3094720759
C        0.6967097402    1.7819808884   -1.8986412701
C       -0.2922308717    2.4971258565   -2.7923575246
C        2.0405753517    2.4760852423   -1.7719723089
H       -0.5549227172   -0.7875381783    0.8544034582
H        0.7220906106   -2.0167977641    0.8833784580
H       -0.3471722202   -1.8832082086   -0.5225266740
H        2.9201757332   -0.4352072749   -1.7277592407
H        1.6916408196   -1.6678158015   -2.0382396022
H        2.7480414414   -1.8060805484   -0.6192951462
H        2.7064211498    1.0769880887    0.3579104617
H        2.3402483354   -0.2737864176    1.4295975136
H        1.2011365264    1.0778098394    1.2881897669
H       -0.6466710798    0.2558998343   -1.5247539346
H       -0.4654192336    3.5241744157   -2.4437709148
H        0.0964091260    2.5760983018   -3.8163206438
H       -1.2571810277    1.9839959913   -2.8314167097
H        2.1450347046    2.9745700477   -0.8019006887
H        2.8781601607    1.7794936277   -1.8642152518
H        2.1579062372    3.2386298452   -2.5479301907
24   
torsion grid (120,)
C        0.1031581021   -1.7706500791    0.0781755194
C        1.0030804553   -0.5370169114   -0.1473900200
C        2.2156569916   -0.9820048285   -0.9903831860
C        1.4930024554   -0.0231393928    1.2257938315
C        0.1517315156    0.5434802371   -0.8107690321
C        0.5041912259    1.6543984955   -1.4814071866
C       -0.5594354839    2.6117620596   -1.9722687158
C        1.9283893431    2.0958180946   -1.7724007455
H       -0.7707671833   -1.5163905283    0.6887124834
H        0.6525254620   -2.5662354865    0.5936879764
H       -0.2583406198   -2.1717181241   -0.8755459487
H        2.9931423238   -0.2170957014   -1.0363015570
H        1.9152341888   -1.2274195462   -2.0146180659
H        2.6676732523   -1.8768253493   -0.5469701438
H        2.1330861477    0.8576030135    1.1124066431
H        2.0697796766   -0.7973505090    1.7469260030
H        0.6477902386    0.2577014964    1.8632114990
H       -0.9197856750    0.4009953760   -0.6618918243
H       -0.4309609014    3.6012972659   -1.5135726007
H       -0.4857848558    2.7588829833   -3.0580920909
H       -1.5687713684    2.2581855978   -1.7438172976
H        2.5136094981    2.2185688975   -0.8546842146
H        2.4588698417    1.3896743830   -2.4162397426
H        1.9307218036    3.0637325610   -2.2831738132
24   
torsion grid (135,)
C        0.1090064675   -1.7131345139    0.1845405117
C        1.0124538987   -0.5044678831   -0.1391254617
C        2.1661558695   -1.0008051604   -1.0355899615
C        1.5821673567    0.0489634415    1.1867356439
C        0.1458891703    0.5557488022   -0.8175192773
C        0.4939344303    1.6689560077   -1.4865690232
C       -0.5722622496    2.5880329297   -2.0401989454
C        1.9155793454    2.1355247795   -1.7415449851
H       -0.7243301173   -1.4207886330    0.8336271350
H        0.6752188736   -2.4981161747    0.6980184657
H       -0.3127031255   -2.1440742729   -0.7306938671
H        2.9229154669   -0.2321299379   -1.2033443298
H        1.7900193752   -1.3246172686   -2.0119066547
H        2.6663071171   -1.8551601615   -0.5644006188
H        2.2364037260    0.9089588494    1.0155253327
H        2.1660527644   -0.7200582504    1.7073657718
H        0.7750580658    0.3719361156    1.8527455666
H       -0.9258105164    0.3813657767   -0.7111017355
H       -0.5056430681    3.5823462484   -1.5790278484
H       -0.4414632585    2.7353128291   -3.1207166200
H       -1.5798623189    2.1986634634   -1.8696348354
H        2.5503342360    2.0506730603   -0.8559113487
H        2.3887169619    1.5691062557   -2.5511841802
H        1.9217872143    3.1883774085   -2.0418753166
24   
torsion grid (150,)
C        0.1070092262   -1.7116942683    0.2157274200
C        1.0166481062   -0.5199388655   -0.1505446740
C        2.1392619131   -1.0455849668   -1.0706850189
C        1.6217799630    0.0436472648    1.1549507099
C        0.1489246514    0.5322903684   -0.8413950123
C        0.4953671631    1.6607073810   -1.4853761674
C       -0.5683157966    2.5484241926   -2.0926516427
C        1.9083621246    2.1693765005   -1.6850712704
H       -0.7044665262   -1.3983042009    0.8824764975
H        0.6768411520   -2.4964128509    0.7255599046
H       -0.3447872536   -2.1510735256   -0.6809310240
H        2.8715144382   -0.2739131491   -1.3167800821
H        1.7234872294   -1.4247378331   -2.0102794464
H        2.6760831683   -1.8669488441   -0.5811038000
H        2.2923505977    0.8860657322    0.9641992820
H        2.1964918584   -0.7305498345    1.6779056965
H        0.8324034744    0.3938583009    1.8283255484
H       -0.9210725744    0.3256528294   -0.7898888604
H       -0.5631428061    3.5407822753   -1.6227758452
H       -0.3809769318    2.7083837153   -3.1630349531
H       -1.5698115909    2.1231275759   -1.9831933689
H        2.5864963651    1.8833406932   -0.8803492794
H        2.3295522159    1.8027393389   -2.6296454743
H        1.9118538009    3.2637693531   -1.7412815481
24   
torsion grid (165,)
C        0.1754072881   -1.7104718474    0.1005790722
C        1.0908487505   -0.5352393509   -0.3032429317
C        2.1877459469   -1.0887652639   -1.2392000756
C        1.7257082496    0.0386454381    0.9833632655
C        0.2221769193    0.5106727878   -1.0038260514
C        0.5591723986    1.6640204209   -1.6075877017
C       -0.5061626791    2.5312229044   -2.2418441807
C        1.9561702860    2.2262883160   -1.7443612111
H       -0.6178847890   -1.3767002900    0.7792198279
H        0.7467484326   -2.4939003161    0.6106364149
H       -0.3003988738   -2.1587434277   -0.7790795862
H        2.9068907407   -0.3221573839   -1.5363238225
H        1.7439582852   -1.4998677428   -2.1520988517
H        2.7437962049   -1.8917250611   -0.7403758882
H        2.4111418271    0.8636350772    0.7730447899
H        2.2906048116   -0.7391369154    1.5115402021
H        0.9521332750    0.4155301635    1.6606535656
H       -0.8419826442    0.2702111609   -1.0068862384
H       -0.5446737022    3.5177981535   -1.7614026995
H       -0.2868552625    2.7086688429   -3.3032697079
H       -1.4989543206    2.0783241843   -2.1714223752
H        2.6841388417    1.7586610250   -1.0834076610
H        2.3156402641    2.1167633860   -2.7760712776
H        1.9532521056    3.3015478918   -1.5271633671
24   
torsion grid (180,)
C        0.0057345405   -1.7538925968    0.4342975669
C        0.9433087763   -0.6168450033   -0.0247616127
C        2.0187358246   -1.2318256587   -0.9479569275
C        1.6023351730   -0.0080440459    1.2330466568
C        0.0925103603    0.4156537682   -0.7666115170
C        0.4367015678    1.5766512835   -1.3516168621
C       -0.6142989777    2.4283319440   -2.0297486686
C        1.8246093264    2.1700053385   -1.4195551813
H       -0.7761765228   -1.3741651734    1.1018252262
H        0.5637095117   -2.5264844143    0.9747455207
H       -0.4846796739   -2.2299343826   -0.4224726245
H        2.7440992991   -0.4901921839   -1.2910867940
H        1.5562852130   -1.6776790621   -1.8348538522
H        2.5703121681   -2.0191684253   -0.4199787930
H        2.3085108184    0.7886009623    0.9869749196
H        2.1492643747   -0.7793537090    1.7887949749
H        0.8434239239    0.4162209065    1.8988437709
H       -0.9656026813    0.1559627134   -0.8233279673
H       -0.6629786438    3.4268222652   -1.5752624733
H       -0.3725960650    2.5790610921   -3.0902932491
H       -1.6087021896    1.9777951958   -1.9682128465
H        2.5881336734    1.5650230240   -0.9346192235
H        2.1243043705    2.3148007915   -2.4657143041
H        1.8357150196    3.1635267339   -0.9526405482
