14   
torsion grid (-165,)
C       -0.5550070764    0.9069614478    1.3055223890
C        0.3455723774   -0.1176390638   -2.3792515638
C       -0.7665194711    0.5623285674   -0.1475757510
C        0.4560055737   -0.0589503568   -0.8741925340
F       -1.1510107357    1.6789231229   -0.8602152122
F       -1.8031021242   -0.3368278722   -0.2757654409
F        0.6186679882   -1.3309303681   -0.3732287576
F        1.5729897130    0.6607985953   -0.5089203860
H       -1.4977646962    1.2759023764    1.7151550885
H        0.2128824999    1.6753880968    1.4008255838
H       -0.2448270077    0.0154284249    1.8540182671
H        1.2284745943   -0.6285074805   -2.7696012007
H       -0.5500955557   -0.6736577384   -2.6624593294
H        0.2918461068    0.8899474959   -2.7924470845
14   
torsion grid (-150,)
C       -0.5335545289    0.9807429314    1.2746776959
C        0.3822065447   -0.0420393226   -2.3731163064
C       -0.7983438123    0.4821122184   -0.1239292401
C        0.4266094020   -0.1428818199   -0.8661162911
F       -1.2972203713    1.4985481425   -0.9137852461
F       -1.7876631825   -0.4748851480   -0.1024674164
F        0.4972086639   -1.4668511246   -0.5048049948
F        1.5701122635    0.4636258471   -0.3905308044
H       -1.4778780934    1.3239839370    1.7026629875
H        0.1828848542    1.8024505492    1.2544898001
H       -0.1313758130    0.1692465858    1.8848109742
H        1.2443035711   -0.5777322213   -2.7765832322
H       -0.5363741253   -0.4987176857   -2.7470725879
H        0.4171968138    1.0015623582   -2.6863712702
14   
torsion grid (-135,)
C       -0.5093483614    1.0516565484    1.2227524442
C        0.4210317202    0.0416022227   -2.3510313433
C       -0.8355100977    0.3892841662   -0.0935242825
C        0.3854918544   -0.2362263624   -0.8658070457
F       -1.4498128417    1.2959012233   -0.9365594793
F       -1.7627627996   -0.6041219824    0.1046984275
F        0.3722927411   -1.5922690839   -0.6618723611
F        1.5453265611    0.2366493440   -0.2841394926
H       -1.4434957417    1.3970820899    1.6709912959
H        0.1601160298    1.8985054125    1.0673590725
H       -0.0270162960    0.3345750283    1.8897603910
H        1.2793425055   -0.4856735142   -2.7733111627
H       -0.4960652284   -0.3194818803   -2.8200339144
H        0.5185221409    1.1116820357   -2.5374184811
14   
torsion grid (-120,)
C       -0.4852066280    1.1193222832    1.1437756734
C        0.4605558051    0.1259254153   -2.3035304226
C       -0.8695256129    0.2941694893   -0.0618914718
C        0.3358786108   -0.3301579495   -0.8683027568
F       -1.5965101259    1.0833819636   -0.9360251227
F       -1.7136954992   -0.7144792362    0.3199420283
F        0.2344996258   -1.6949801330   -0.8264111714
F        1.5015494011   -0.0155526873   -0.1925268055
H       -1.4020754377    1.4996336745    1.5994549609
H        0.1500580223    1.9555177481    0.8469986536
H        0.0546884034    0.5024742102    1.8636612878
H        1.3340324006   -0.3643302782   -2.7390574793
H       -0.4336860168   -0.1505043509   -2.8639440895
H        0.5875492377    1.2087450986   -2.3502792161
14   
torsion grid (-105,)
C       -0.7864827890    0.6084823940    1.4071938193
C        1.7738408662    0.9269078772   -1.0390177056
C       -0.6463675766    0.7636995354   -0.0903350641
C        0.5978004235    0.0346209172   -0.7183408575
F       -0.5312377682    2.1118465368   -0.3852875240
F       -1.7843261113    0.3275993841   -0.7091901423
F        0.2002828044   -0.6424150851   -1.8388939520
F        1.0016272615   -0.9392578964    0.1807466724
H       -1.6302119602    1.2206995500    1.7331725760
H        0.1212106135    0.9443843259    1.9127373463
H       -0.9682995236   -0.4360331246    1.6617545198
H        2.5921539454    0.2960381819   -1.3928986392
H        1.5001435456    1.6450652872   -1.8126139242
H        2.0944465463    1.4704399054   -0.1478778979
14   
torsion grid (-90,)
C       -0.7086828317    0.6808884134    1.3861783576
C        1.7714252576    0.9082531379   -0.9329964700
C       -0.6865555906    0.7151079489   -0.1261281881
C        0.5553755763    0.0255825226   -0.7759195637
F       -0.6887114838    2.0349022013   -0.5431624024
F       -1.8256653163    0.1422290137   -0.6179168684
F        0.1897475634   -0.4957604809   -1.9872256739
F        0.8773068529   -1.0620919235    0.0191050342
H       -1.5686550702    1.2615740984    1.7270159028
H        0.2040023548    1.1211020943    1.7937163883
H       -0.7967325042   -0.3475004085    1.7369072589
H        2.5895322849    0.2966766501   -1.3195789916
H        1.5574402116    1.7196754410   -1.6290178167
H        2.0647529729    1.3314390802    0.0301722601
14   
torsion grid (-75,)
C       -0.6528365697    0.7636331177    1.3611090655
C        1.7756633088    0.8691009397   -0.8371901330
C       -0.7138289836    0.6752480416   -0.1475903727
C        0.5247662879    0.0209952850   -0.8191246561
F       -0.8383988401    1.9462581853   -0.6771181110
F       -1.8293026170   -0.0231971691   -0.5218596388
F        0.1848512809   -0.3325753728   -2.0976443810
F        0.7723187885   -1.1596045662   -0.1428236709
H       -1.5657175956    1.2500782700    1.7116637787
H        0.2077614253    1.3557648432    1.6786150441
H       -0.5838939649   -0.2358913508    1.7917881122
H        2.5694281105    0.2964773273   -1.3218015673
H        1.5957150729    1.7882473900   -1.3958986965
H        2.0880545737    1.1175428479    0.1790244541
14   
torsion grid (-60,)
C       -0.6047828368    0.8507767267    1.3293814233
C        1.7771863400    0.8179369499   -0.7461568830
C       -0.7364978758    0.6406724886   -0.1619281722
C        0.4995327911    0.0163103584   -0.8583814131
F       -0.9885273520    1.8437128800   -0.7879797601
F       -1.8140862950   -0.1678519460   -0.4175375739
F        0.1906268210   -0.1632529426   -2.1814610507
F        0.6838920199   -1.2366783431   -0.3129435439
H       -1.5584081838    1.2238206738    1.7091236069
H        0.1738575566    1.5836909329    1.5481780200
H       -0.3661417538   -0.0945532616    1.8200181863
H        2.5494586970    0.3164516581   -1.3334562219
H        1.6225327329    1.8245514697   -1.1387021957
H        2.1059376163    0.8764901442    0.2929948052
14   
torsion grid (-45,)
C       -0.5638315891    0.9305473905    1.2955183871
C        1.7760733917    0.7662670905   -0.6651276556
C       -0.7589521346    0.6051604142   -0.1674068820
C        0.4803901127    0.0191398510   -0.9011094857
F       -1.1537019073    1.7257216308   -0.8606135097
F       -1.7825622299   -0.3034009978   -0.2969770449
F        0.2132950146    0.0200178232   -2.2463242587
F        0.6189531883   -1.2889968738   -0.5035059711
H       -1.5271046942    1.2335933170    1.7113233251
H        0.1490930340    1.7474681980    1.4188479408
H       -0.2054837639    0.0477277542    1.8295909401
H        2.5462072903    0.3279192447   -1.3035309362
H        1.6532527019    1.8197146979   -0.9263971176
H        2.0889518629    0.6811982486    0.3768614955
14   
torsion grid (-30,)
C       -0.5366649573    1.0088515372    1.2614377349
C        1.7798518468    0.7094621836   -0.5962131062
C       -0.7817844734    0.5647924989   -0.1624175020
C        0.4682273314    0.0361162235   -0.9467124998
F       -1.3340331288    1.5870264866   -0.8946083200
F       -1.7224781644   -0.4394237986   -0.1573966336
F        0.2433592110    0.2234321612   -2.2870202661
F        0.5727654278   -1.3120060812   -0.7208303717
H       -1.4987133006    1.2722598150    1.7060133578
H        0.1202446434    1.8794287613    1.2918898968
H       -0.0909075761    0.1937919986    1.8363292910
H        2.5537109512    0.3105458687   -1.2556203910
H        1.7022556042    1.7878661962   -0.7533013183
H        2.0587468622    0.5099339377    0.4395993553
14   
torsion grid (-15,)
C       -0.5265822951    1.0924997737    1.2238201253
C        1.7903926318    0.6407808563   -0.5357886962
C       -0.8005001072    0.5159808738   -0.1477387455
C        0.4620774894    0.0692495582   -0.9904640614
F       -1.5132727260    1.4188600574   -0.8952901598
F       -1.6193988097   -0.5793406331   -0.0033350302
F        0.2669041360    0.4504729170   -2.2940875620
F        0.5341193740   -1.2984551347   -0.9680812020
H       -1.4871285976    1.3238476594    1.6890170854
H        0.0645156154    2.0069632300    1.1548374548
H       -0.0002515780    0.3634146965    1.8436163804
H        2.5634989701    0.2754948402   -1.2152260503
H        1.7698484728    1.7318874854   -0.5793657435
H        2.0303577017    0.3204216089    0.4792354320
14   
torsion grid (0,)
C       -0.5333292067    1.1893580362    1.1742677087
C        1.8051845339    0.5490622397   -0.4783092909
C       -0.8077328101    0.4634369056   -0.1266531664
C        0.4590769619    0.1168353343   -1.0217505277
F       -1.6680854655    1.2237457094   -0.8772849995
F       -1.4654118379   -0.7066396821    0.1567594503
F        0.2820012887    0.6903432602   -2.2555447641
F        0.4848262152   -1.2402532311   -1.2215056194
H       -1.4904103403    1.3511095995    1.6747423377
H       -0.0646954468    2.1571564406    0.9869656634
H        0.1088857663    0.5926654924    1.8244548179
H        2.5686023369    0.2492061993   -1.1993564840
H        1.8440159678    1.6325641360   -0.3527989203
H        2.0116523142    0.0634873489    0.4771630215
14   
torsion grid (15,)
C       -0.7227804990    0.5998974987    1.3095399875
C        1.0389982536   -1.2063314772   -0.2078008417
C       -0.7063029700    0.7637849447   -0.1973335944
C        0.4076760235   -0.0580747389   -0.9637887972
F       -0.5240604646    2.0959297561   -0.4712592639
F       -1.9294424826    0.4042445243   -0.6982999270
F        1.3808832036    0.8197986002   -1.3690968536
F       -0.1533937232   -0.5533414103   -2.1175164286
H       -1.5149702804    1.2373238565    1.7081440155
H        0.2316325970    0.9150921110    1.7368366438
H       -0.9249193115   -0.4346801566    1.5910999610
H        1.7594719015   -1.6895882089   -0.8710955548
H        1.5586257149   -0.8515341610    0.6835491854
H        0.2782849664   -1.9355688467    0.0790171189
14   
torsion grid (30,)
C       -0.6690985036    0.6743662745    1.3167520682
C        0.9773647935   -1.2646325307   -0.2440791253
C       -0.7300057794    0.7139063827   -0.1969619605
C        0.4391865066   -0.0298030119   -0.9297873948
F       -0.7104787019    2.0295539078   -0.5852515644
F       -1.9134184426    0.1665647205   -0.6204438145
F        1.4470791952    0.8790609798   -1.1399389983
F       -0.0129047927   -0.3797894713   -2.1813878052
H       -1.4873368388    1.2840985314    1.7060113828
H        0.2791545585    1.0900678590    1.6655522245
H       -0.7794332064   -0.3459435974    1.6872861488
H        1.7227454033   -1.7200951916   -0.8994646016
H        1.4471900751   -1.0102100143    0.7071809742
H        0.1696586626   -1.9801925467   -0.0734718830
14   
torsion grid (45,)
C       -0.6303961780    0.7546729122    1.3233298479
C        0.9274562203   -1.3198477073   -0.2939937247
C       -0.7419671246    0.6669080059   -0.1841617805
C        0.4632392850   -0.0125872246   -0.8937197544
F       -0.8671579175    1.9361256420   -0.6885001624
F       -1.8743395637   -0.0323455120   -0.5266337640
F        1.4931401304    0.8989236882   -0.9154502760
F        0.1074455915   -0.2169633751   -2.2058520386
H       -1.4775525080    1.3338729754    1.6970507265
H        0.2973673863    1.2599622603    1.6008834224
H       -0.6549388886   -0.2393920377    1.7728891895
H        1.7027443962   -1.7377325146   -0.9396918746
H        1.3421619441   -1.1629085934    0.7031123484
H        0.0925001558   -2.0217362274   -0.2372665085
14   
torsion grid (60,)
C       -0.6006032365    0.8458231525    1.3297000713
C        0.8824418163   -1.3765695625   -0.3567941055
C       -0.7452441325    0.6269289077   -0.1598509918
C        0.4851378573   -0.0067105448   -0.8579255809
F       -1.0051479217    1.8252371626   -0.7719883841
F       -1.8230164840   -0.1962643195   -0.4093139526
F        1.5350283877    0.8748856266   -0.7053355549
F        0.2179854005   -0.0697764775   -2.2013902750
H       -1.4945155591    1.3601063485    1.6892082849
H        0.2765596374    1.4625713306    1.5333894775
H       -0.5073647371   -0.1077309255    1.8525607438
H        1.7079192762   -1.7411360439   -0.9719733440
H        1.2116163709   -1.3263178075    0.6826456255
H        0.0389062538   -2.0640945553   -0.4409363633
14   
torsion grid (75,)
C       -0.5718972159    0.9462208609    1.3315287227
C        0.8337999365   -1.4337879384   -0.4293875170
C       -0.7453403383    0.5927802754   -0.1277005740
C        0.5077447757   -0.0095787972   -0.8205678398
F       -1.1351016333    1.7012676155   -0.8309140908
F       -1.7644048011   -0.3319684065   -0.2649200375
F        1.5772113648    0.8086793081   -0.5073920175
F        0.3321013147    0.0656623253   -2.1754378727
H       -1.5188349066    1.3457961369    1.7009300033
H        0.2098286395    1.6984042736    1.4432950914
H       -0.3096057769    0.0610537585    1.9143548392
H        1.7346179972   -1.7376710237   -0.9670223403
H        1.0211156997   -1.5060798624    0.6438066348
H        0.0084678732   -2.0938262341   -0.6985773510
14   
torsion grid (90,)
C       -0.5533338581    1.0479189146    1.3249984783
C        0.7912952959   -1.4842476587   -0.5083884945
C       -0.7472227264    0.5553308584   -0.0900356862
C        0.5341961258   -0.0175235842   -0.7755068983
F       -1.2596334201    1.5542769682   -0.8725230697
F       -1.6969076130   -0.4530138281   -0.0989554360
F        1.6116794035    0.7166903190   -0.3110298906
F        0.4573728274    0.2002251743   -2.1224669148
H       -1.5273198347    1.3456694528    1.7192914990
H        0.1244875175    1.9017991302    1.3343960622
H       -0.1395154234    0.2560410299    1.9530950396
H        1.7487971500   -1.7498375692   -0.9617874411
H        0.8389055473   -1.6764548843    0.5656968414
H       -0.0030980624   -2.0899220310   -0.9447884384
14   
torsion grid (105,)
C       -0.5575475654    1.1549295987    1.3138054708
C        0.7669795702   -1.5303393488   -0.6033696948
C       -0.7479125830    0.5063196162   -0.0371744874
C        0.5650761218   -0.0358017453   -0.7125013466
F       -1.3653236573    1.3755076660   -0.8947017583
F       -1.6160622595   -0.5655080748    0.0946442133
F        1.6367974335    0.5994820215   -0.1078688516
F        0.5839414060    0.3388934468   -2.0267928800
H       -1.5424898941    1.4163504474    1.7067588565
H        0.0515207879    2.0541370970    1.2159635147
H       -0.0640960166    0.4654173663    2.0018633944
H        1.7419789044   -1.7720845330   -1.0321896341
H        0.7436718763   -1.8436998623    0.4423710406
H       -0.0168311951   -2.0566514039   -1.1488121867
14   
torsion grid (120,)
C       -0.7238118045    0.5197003742    1.2508933594
C        0.2222106878   -0.4737590569   -2.1963240801
C       -0.5990398601    0.9757532907   -0.1843356942
C        0.6064310714    0.3514260646   -0.9906476795
F       -0.4976788072    2.3405760959   -0.2262502496
F       -1.7646581416    0.6611154185   -0.8601869338
F        1.3333655552   -0.4377560271   -0.1164449173
F        1.4506130762    1.3600790513   -1.3724434372
H       -1.5973279792    1.0099508391    1.6863469097
H        0.1703851961    0.7961585535    1.8113645139
H       -0.8507897127   -0.5631204121    1.2976578298
H        1.1391175561   -0.8540693876   -2.6519276765
H       -0.4130653735   -1.3099556288   -1.8995747004
H       -0.3176392776    0.1430660724   -2.9162631760
14   
torsion grid (135,)
C       -0.6842918145    0.6040252821    1.2983950883
C        0.2463563666   -0.4060945079   -2.2753008556
C       -0.6486512337    0.8818207008   -0.1868329644
C        0.5724144609    0.2563106488   -0.9590147793
F       -0.6354572317    2.2378592704   -0.3907967941
F       -1.8084376270    0.4089151870   -0.7685717578
F        1.1866695608   -0.6502784543   -0.1159153562
F        1.4996669590    1.2497262806   -1.1571925137
H       -1.5426456844    1.1312902066    1.7206007572
H        0.2327626094    0.9651428086    1.7674550982
H       -0.7817696506   -0.4660524550    1.4848002507
H        1.1805401337   -0.7515211635   -2.7234629225
H       -0.4231116914   -1.2529461418   -2.1199385508
H       -0.2359329708    0.3109675853   -2.9423606317
14   
torsion grid (150,)
C       -0.6454699429    0.6876670500    1.3204808488
C        0.2705663024   -0.3351818692   -2.3272254594
C       -0.6897683552    0.7884756658   -0.1865244182
C        0.5352480106    0.1634861366   -0.9286112412
F       -0.7603653115    2.1124355037   -0.5478698273
F       -1.8332277265    0.1819377052   -0.6621763057
F        1.0340861520   -0.8529237045   -0.1386969843
F        1.5245522129    1.1204994081   -0.9500252060
H       -1.5076019979    1.2233577700    1.7238757105
H        0.2730787625    1.1443647595    1.6944919176
H       -0.6804691175   -0.3559282624    1.6337559994
H        1.2149242415   -0.6784272162   -2.7551314248
H       -0.4458686958   -1.1568940071   -2.3070703102
H       -0.1315723484    0.4762963082   -2.9374092311
14   
torsion grid (165,)
C       -0.6088345106    0.7632668875    1.3266173410
C        0.2920220007   -0.2613964568   -2.3580719302
C       -0.7191733558    0.7045269463   -0.1784464601
C        0.5034199702    0.0832665962   -0.9049638303
F       -0.8818384254    1.9764930252   -0.6794577460
F       -1.8361103890   -0.0152592973   -0.5437701358
F        0.8878984321   -1.0332937721   -0.1922755284
F        1.5399673265    0.9824659561   -0.7767226172
H       -1.4917619316    1.2741470668    1.7168945006
H        0.2868144525    1.3192972378    1.6098619345
H       -0.5551316786   -0.2443058922    1.7398512794
H        1.2348008195   -0.6303904203   -2.7676076711
H       -0.4758943723   -1.0297904007   -2.4534276786
H       -0.0180661518    0.6301377712   -2.9066173895
14   
torsion grid (180,)
C       -0.5790974416    0.8348084305    1.3217740325
C        0.3160308697   -0.1890903462   -2.3743786938
C       -0.7419786146    0.6321567712   -0.1648105113
C        0.4786645068    0.0128710442   -0.8876722412
F       -1.0114805168    1.8351270416   -0.7811933141
F       -1.8216821586   -0.1860389383   -0.4171825054
F        0.7483788944   -1.1899124532   -0.2716296560
F        1.5583608580    0.8315195799   -0.6350937172
H       -1.4991736772    1.2737211018    1.7137722324
H        0.2573995901    1.5077536574    1.5156667969
H       -0.3955539383   -0.1235264446    1.8097533263
H        1.2358764282   -0.6285409298   -2.7662920411
H       -0.5209391461   -0.8612943683   -2.5689353870
H        0.1333065323    0.7696111016   -2.8619142526
