17   
torsion grid (-165,)
C        1.2053821125    0.7021033602    0.3687091071
C        0.8339303776   -0.6227316672   -0.2955093526
C       -0.2089222434    0.2175559785    0.3692614530
C       -1.3807171805    0.9230227663   -0.2791586138
N       -1.4281407994   -0.2109056053   -2.7765645100
O       -2.4420331973    2.1166624095   -2.3613426038
O        0.0977231026    1.7732565660   -2.3558675038
F       -0.6572755294   -0.2762884348    1.5980637606
S       -1.2594731370    1.3123614072   -2.0441865762
H        1.4557119940    1.5346589874   -0.2795781844
H        1.7235834465    0.6589013672    1.3213369764
H        0.8610905830   -0.6789941650   -1.3767204981
H        1.0967245673   -1.5381889521    0.2247780404
H       -1.5624658821    1.8928011259    0.1935150725
H       -2.2821330435    0.3134368261   -0.1801800178
H       -2.3475588500   -0.2770096223   -3.2136340855
H       -0.6933787696   -0.3206141251   -3.4750707993
17   
torsion grid (-150,)
C        1.1880316837    0.6959124857    0.4853166650
C        0.8920423760   -0.5322246720   -0.3696851722
C       -0.2138141073    0.1984720517    0.3293328917
C       -1.3414700388    0.9975198260   -0.2924643135
N       -1.5189063216   -0.2823451310   -2.7099726417
O       -2.4433157334    2.0906978674   -2.4149318562
O        0.0871819374    1.6802296042   -2.4493313932
F       -0.7252914971   -0.4744248940    1.4421007355
S       -1.2740946230    1.2738012303   -2.0803668530
H        1.4538037888    1.6107703244   -0.0353113541
H        1.6531956923    0.5421598898    1.4536710544
H        1.0072662079   -0.4393847226   -1.4419649888
H        1.1337836974   -1.5037815951    0.0490385848
H       -1.4077707520    2.0040988794    0.1302575519
H       -2.2890638284    0.4832833928   -0.1191802969
H       -2.4235026865   -0.3177497243   -3.1795542789
H       -0.7660282439   -0.5070065902   -3.3591026704
17   
torsion grid (-135,)
C        1.1676661508    0.6624426811    0.6059034988
C        0.9559882735   -0.4385657979   -0.4258102882
C       -0.2133404163    0.1860145913    0.2775171722
C       -1.2869027123    1.0750849864   -0.3197751082
N       -1.5938731494   -0.3479346378   -2.6386339200
O       -2.4890740812    2.0419928495   -2.4561550033
O        0.0357321591    1.6219045925   -2.5763403036
F       -0.7921063974   -0.6302716289    1.2508324632
S       -1.3079317680    1.2413800487   -2.1235471263
H        1.4584575916    1.6426268098    0.2392973690
H        1.5613217353    0.3823459650    1.5776637897
H        1.1483295231   -0.1970324831   -1.4636118416
H        1.1796786010   -1.4557200427   -0.1207726972
H       -1.2217195823    2.1059726390    0.0387452036
H       -2.2691186454    0.6772243996   -0.0593049420
H       -2.4877563118   -0.3883555781   -3.1273235931
H       -0.8333034190   -0.6590811719   -3.2408330083
17   
torsion grid (-120,)
C        1.1340508478    0.6167418930    0.7247639020
C        1.0287049521   -0.3345009751   -0.4592215808
C       -0.2083643624    0.1790483717    0.2178229900
C       -1.2235998117    1.1454971449   -0.3571742037
N       -1.6554094890   -0.4097995706   -2.5687938612
O       -2.5413748874    1.9894486658   -2.4882766789
O       -0.0258641438    1.5566688204   -2.7082063344
F       -0.8528344878   -0.7541118777    1.0294055931
S       -1.3450567346    1.2062320877   -2.1670418725
H        1.4381853421    1.6405858897    0.5270009930
H        1.4491029290    0.2069201612    1.6789224724
H        1.2856057088    0.0431563402   -1.4415923345
H        1.2497826874   -1.3806317990   -0.2730964500
H       -1.0214444579    2.1828329215   -0.0782954941
H       -2.2201783022    0.8766832930   -0.0043098882
H       -2.5647666209   -0.4776435188   -3.0243752067
H       -0.9144916183   -0.7670996253   -3.1696803807
17   
torsion grid (-105,)
C        1.0856514216    0.5717027745    0.8404581530
C        1.1226424122   -0.2121373835   -0.4637597315
C       -0.1895246037    0.1729289234    0.1525743845
C       -1.1530290891    1.1942500438   -0.4043333752
N       -1.7553707624   -0.4601668787   -2.5055171745
O       -2.5593969333    1.9690125736   -2.5149614464
O       -0.0737172764    1.4364479292   -2.8339880591
F       -0.8797383273   -0.8632856004    0.7751909831
S       -1.3742687325    1.1620717174   -2.2097774158
H        1.3717053652    1.6192840047    0.8205763463
H        1.3244420701    0.0382551846    1.7548239813
H        1.4339588962    0.2945471886   -1.3698297620
H        1.3730398234   -1.2660921188   -0.3963809782
H       -0.8314602305    2.2196833824   -0.2067705821
H       -2.1436403739    1.0451076566    0.0279134584
H       -2.6864937253   -0.5240730773   -2.9148800660
H       -1.0527523831   -0.8775080976   -3.1134870512
17   
torsion grid (-90,)
C        1.0267824657    0.5331013096    0.9495271995
C        1.2392125832   -0.0764986150   -0.4294483276
C       -0.1476887241    0.1631240936    0.0866967384
C       -1.0759956518    1.2122311649   -0.4634758667
N       -1.9226720987   -0.4858869799   -2.4547037177
O       -2.5262524485    1.9909616198   -2.5426927182
O       -0.1062057149    1.2461343556   -2.9488501417
F       -0.8427422020   -0.9675564798    0.4971796949
S       -1.3926331722    1.1063491124   -2.2549757913
H        1.2506680060    1.5855834966    1.0968238080
H        1.2037554382   -0.1045582335    1.8096619763
H        1.5936590034    0.5485036431   -1.2412769469
H        1.5538802644   -1.1146381483   -0.4637855151
H       -0.6671393507    2.2176456972   -0.3386679610
H       -2.0508842089    1.1596307852    0.0250770834
H       -2.8588636736   -0.4877905910   -2.8569129461
H       -1.2648329643   -1.0063080080   -3.0323249037
17   
torsion grid (-75,)
C        0.9672457951    0.4877720157    1.0453591517
C        1.4109098549    0.1485373806   -0.3722515342
C       -0.0408400596    0.1405859950   -0.0144692280
C       -1.0164471738    1.1589704461   -0.5268574801
N       -2.3097578592   -0.4015690223   -2.3653008547
O       -2.2975283360    2.1040210955   -2.6628340307
O       -0.1112105230    0.8248450286   -3.0175477970
F       -0.6279709386   -1.1161288394    0.1107933630
S       -1.3821526925    1.0146205808   -2.3085137547
H        1.0289897736    1.5167984677    1.3872739926
H        1.1265311149   -0.2648559223    1.8109121411
H        1.7668544974    0.9356599260   -1.0276169138
H        1.8662883758   -0.8234885673   -0.5301155995
H       -0.6093898833    2.1683128200   -0.4290684018
H       -1.9769425631    1.1018331768   -0.0109739047
H       -3.0539084669   -0.2705080970   -3.0506175048
H       -1.7286233644   -1.2053782619   -2.6003199797
17   
torsion grid (-60,)
C        0.8996435844    0.4209452983    1.0903398357
C        1.4933336641    0.2687344392   -0.3069287310
C        0.0183432505    0.1590538282   -0.0950243303
C       -0.9447328774    1.1909268815   -0.6037145078
N       -2.4532621622   -0.3693480887   -2.2553450892
O       -2.2214660887    2.0853588072   -2.7682749932
O       -0.1732590104    0.5912470803   -3.0879196981
F       -0.5060961330   -1.1292907819   -0.1919539071
S       -1.3931462506    0.9481659785   -2.3552798568
H        0.8694666194    1.4037804522    1.5518260570
H        1.0296710402   -0.4083789204    1.7782794962
H        1.8706795289    1.1430805492   -0.8267561760
H        2.0135395899   -0.6572708119   -0.5269432987
H       -0.4970394744    2.1867612158   -0.5727962172
H       -1.8873882335    1.1961244689   -0.0517430126
H       -3.1610200370   -0.2624024657   -2.9825727020
H       -1.9452194590   -1.2474597083   -2.3573412043
17   
torsion grid (-45,)
C        0.8185028213    0.3498375067    1.1168207743
C        1.5688702902    0.3432751448   -0.2132257871
C        0.0841651487    0.1722859154   -0.1763885403
C       -0.8567525634    1.2261113712   -0.6968271468
N       -2.5191483219   -0.3690403582   -2.1558225211
O       -2.2673441761    2.0503153299   -2.7951218454
O       -0.2835976272    0.4908369019   -3.1995592335
F       -0.3620095700   -1.1190332437   -0.4546788680
S       -1.4358929777    0.9102563308   -2.3957747880
H        0.6983780711    1.2861217350    1.6545286725
H        0.9075587873   -0.5331031229    1.7417516023
H        1.9699384410    1.2740967559   -0.6014323421
H        2.1468675927   -0.5432534295   -0.4510809591
H       -0.3636264551    2.1991528166   -0.7470722295
H       -1.7669947070    1.3111907971   -0.0980939781
H       -3.2821451571   -0.2643841153   -2.8251227987
H       -2.0447220456   -1.2646381131   -2.2650483469
17   
torsion grid (-30,)
C        0.7245661858    0.2747111973    1.1202298640
C        1.6263084291    0.3961602433   -0.1072940016
C        0.1539128598    0.1831079237   -0.2599140660
C       -0.7593533954    1.2617371563   -0.8024764772
N       -2.5494805952   -0.3732981139   -2.0469049326
O       -2.3463553334    2.0240054991   -2.7821557440
O       -0.4182879151    0.4384217960   -3.3233958349
F       -0.2006987415   -1.0958225835   -0.6863471276
S       -1.4872278954    0.8893812270   -2.4285201048
H        0.5090639069    1.1630219649    1.7074875460
H        0.7741940405   -0.6516751090    1.6836710731
H        2.0360759960    1.3676861173   -0.3662376689
H        2.2625805379   -0.4511932482   -0.3399179554
H       -0.2184320263    2.1984505255   -0.9519995877
H       -1.6209409433    1.4434854025   -0.1555231911
H       -3.3782187237   -0.2732881272   -2.6336912187
H       -2.0956588354   -1.2748636485   -2.1891589081
17   
torsion grid (-15,)
C        0.6205846307    0.1995151906    1.0986088749
C        1.6583044954    0.4393600101    0.0023901628
C        0.2233366627    0.1975865273   -0.3432437119
C       -0.6571188894    1.2986239222   -0.9149921436
N       -2.5466439630   -0.3811352461   -1.9279435290
O       -2.4331841489    1.9994958858   -2.7401061247
O       -0.5645788633    0.4073113870   -3.4375213256
F       -0.0332813189   -1.0588138664   -0.8895366661
S       -1.5374105582    0.8758177450   -2.4486829615
H        0.3049781250    1.0361764366    1.7157363340
H        0.6387276888   -0.7639016386    1.5981879069
H        2.0582668386    1.4402295820   -0.1311328317
H        2.3504422890   -0.3687739125   -0.2102591219
H       -0.0716052107    2.1809315644   -1.1833503393
H       -1.4508312329    1.5923522212   -0.2250135061
H       -3.4380228818   -0.2905676095   -2.4161898934
H       -2.1099161118   -1.2841799768   -2.1090994595
17   
torsion grid (0,)
C        0.5094134553    0.1251264231    1.0514866355
C        1.6608845702    0.4745936379    0.1088267071
C        0.2882100055    0.2171105108   -0.4251217210
C       -0.5530738822    1.3365717523   -1.0277170444
N       -2.5149049258   -0.3880793724   -1.8010557777
O       -2.5179502339    1.9766651857   -2.6732326641
O       -0.7120134757    0.3904010861   -3.5255372203
F        0.1329794557   -1.0080909746   -1.0707300130
S       -1.5828422484    0.8693424950   -2.4511860350
H        0.0935408518    0.9061843672    1.6816467448
H        0.5059239517   -0.8705073619    1.4834252580
H        2.0348113287    1.4944391263    0.0941647633
H        2.4042115249   -0.2947969732   -0.0735652165
H        0.0696164499    2.1425293427   -1.4248314772
H       -1.2566723977    1.7510405860   -0.3041572525
H       -3.4572646027   -0.3125547461   -2.1850423797
H       -2.0928222762   -1.2899468622   -2.0195216427
17   
torsion grid (15,)
C        0.3956302493    0.0545316206    0.9798464907
C        1.6351993919    0.5059822120    0.2082315864
C        0.3478110048    0.2396659499   -0.5042349302
C       -0.4488073513    1.3706505539   -1.1373453148
N       -2.4610831443   -0.3883432618   -1.6676504331
O       -2.5850071736    1.9587058989   -2.5901422777
O       -0.8553063966    0.3694396470   -3.5816953499
F        0.3022107123   -0.9459075799   -1.2335399683
S       -1.6186866879    0.8664202574   -2.4365065620
H       -0.1235963182    0.7746426846    1.6054072667
H        0.3837341899   -0.9681789958    1.3424131843
H        1.9658913653    1.5366455139    0.3023207796
H        2.4264147275   -0.2234088886    0.0668552338
H        0.1979492745    2.0844754630   -1.6558069638
H       -1.0485507587    1.9006256410   -0.3966603965
H       -3.4422740276   -0.3258781900   -1.9404031400
H       -2.0594815060   -1.2900403037   -1.9232375404
17   
torsion grid (30,)
C        0.2869495159   -0.0058265656    0.8912620968
C        1.5882386721    0.5332726700    0.2995691357
C        0.4054178814    0.2617774647   -0.5759246413
C       -0.3464577441    1.3942429750   -1.2419234715
N       -2.3938235021   -0.3867623473   -1.5390137434
O       -2.6354982325    1.9470057476   -2.4790328427
O       -0.9996638501    0.3524818003   -3.6131168336
F        0.4839295187   -0.8780581504   -1.3701297948
S       -1.6468615029    0.8661814832   -2.4054964905
H       -0.3350567767    0.6551072120    1.4870961399
H        0.2767270506   -1.0478439839    1.1932869689
H        1.8640666614    1.5675222429    0.4857580715
H        2.4198075955   -0.1588727067    0.2128084775
H        0.3094216765    2.0078212106   -1.8670991156
H       -0.8394518604    2.0266703807   -0.5031085969
H       -3.4000257074   -0.3259112308   -1.6965734111
H       -2.0256718449   -1.2887799799   -1.8405102841
17   
torsion grid (45,)
C       -1.3543396602   -0.6009087935    1.2153430285
C        0.1493339424   -0.3513150074    1.3089246571
C       -0.5506372797   -0.3302403793   -0.0148841673
C       -0.7052459587    0.9381221208   -0.8103773411
N       -1.0676631219   -0.2420876244   -3.3607185254
O       -3.0363434367    0.1354001606   -1.8228259711
O       -1.8026853301    2.1108682447   -2.9036067006
F       -0.3424988574   -1.4496121378   -0.8296175551
S       -1.8104335903    0.7919164662   -2.2694854772
H       -1.6952074168   -1.6216227804    1.3512446327
H       -2.0431948582    0.1654693308    1.5557213922
H        0.5085831589    0.5893873627    1.7166356474
H        0.7830088500   -1.2109467385    1.5031662969
H        0.2493231460    1.3032377685   -1.2028927246
H       -1.1529730605    1.7247771405   -0.1996812495
H       -0.2467527780    0.1804942694   -3.7889617735
H       -0.8779016817   -1.1569825351   -2.9556758908
17   
torsion grid (60,)
C       -1.3722105533   -0.6760718135    1.0680831777
C        0.0776628664   -0.3075247533    1.3693476159
C       -0.4390522574   -0.3067853120   -0.0381098845
C       -0.5879566347    0.9572845219   -0.8320207409
N       -1.2214035867   -0.2879431597   -3.2969162147
O       -3.0327948855    0.2744474816   -1.6293179282
O       -1.7766795620    2.1275407538   -2.8869967621
F       -0.0168096696   -1.3755864028   -0.8401285494
S       -1.8093430277    0.8367889801   -2.1981236416
H       -1.6396601488   -1.7249887858    1.1381853089
H       -2.1666427543    0.0196522360    1.3161586803
H        0.2987105501    0.6466717974    1.8388457646
H        0.7510510769   -1.1179496577    1.6297843768
H        0.3549665557    1.2735599447   -1.2882111584
H       -0.9623029340    1.7664269893   -0.2010726262
H       -0.4057920674    0.0633418222   -3.7950691769
H       -1.0473709007   -1.1929077741   -2.8621299628
17   
torsion grid (75,)
C       -1.3604879961   -0.7810773779    0.8884105947
C       -0.0143563821   -0.2790721459    1.3973650264
C       -0.3294756670   -0.2752197206   -0.0698751128
C       -0.4847051905    0.9968299077   -0.8496158450
N       -1.3886760814   -0.3495317905   -3.1655656388
O       -3.0313881126    0.5327542466   -1.4653523694
O       -1.6690215587    2.1415662550   -2.9286913050
F        0.3260556130   -1.2543546521   -0.8272560420
S       -1.7902176424    0.9177497772   -2.1368159156
H       -1.5204167426   -1.8543383983    0.8958171102
H       -2.2514474050   -0.1799809970    1.0319701538
H        0.0337302025    0.6728949235    1.9178514615
H        0.7007486907   -1.0252270991    1.7286378681
H        0.4440927876    1.2783336681   -1.3526657682
H       -0.8002456644    1.8171400460   -0.2008159586
H       -0.5460895139   -0.1451908640   -3.7000847078
H       -1.3137272700   -1.2373189108   -2.6710052730
17   
torsion grid (90,)
C       -1.3020354637   -0.9086820683    0.6783014406
C       -0.1225985933   -0.2637320826    1.3942937601
C       -0.2170366576   -0.2271036406   -0.1024823620
C       -0.3974050989    1.0550544634   -0.8680020516
N       -1.5614948372   -0.4098307698   -2.9751978771
O       -3.0093924212    0.8261705607   -1.3240524504
O       -1.5664211226    2.1130189664   -3.0085539706
F        0.6712190624   -1.0770605753   -0.7699116140
S       -1.7696969497    1.0001703011   -2.0826476158
H       -1.3094973815   -1.9933363456    0.6318926986
H       -2.2752957741   -0.4320096199    0.7126019517
H       -0.2863187703    0.6591204610    1.9425841201
H        0.6301072625   -0.9256553295    1.8102074578
H        0.5113417917    1.3116570924   -1.4164842344
H       -0.6625302115    1.8851132812   -0.2092042672
H       -0.7036420640   -0.3910925198   -3.5240302385
H       -1.6249307038   -1.2458453069   -2.3970064685
17   
torsion grid (105,)
C       -1.2461596921   -0.9997982503    0.5570569480
C       -0.2383842954   -0.2340574877    1.4029770692
C       -0.1381794268   -0.2177902535   -0.0927641302
C       -0.3092405353    1.0428351803   -0.9072997435
N       -1.6937898641   -0.3939656258   -2.8914467019
O       -2.9566402413    0.9579530206   -1.1796343944
O       -1.5612995311    2.1237947633   -2.9849207285
F        0.9038246544   -0.9915962202   -0.6129894466
S       -1.7619211096    1.0434465305   -2.0212200582
H       -1.1348205323   -2.0796083899    0.5291317027
H       -2.2585959655   -0.6199300644    0.4785149356
H       -0.5695974175    0.6728646843    1.8999122321
H        0.5143405761   -0.8103130337    1.9310527646
H        0.5700247119    1.2083104503   -1.5324044105
H       -0.4630110435    1.9228921550   -0.2785268738
H       -0.8859266149   -0.4330719763   -3.5103246394
H       -1.7662516058   -1.2160086146   -2.2948062466
17   
torsion grid (120,)
C        1.1826546722    0.2462218887   -0.2965435261
C        0.5126075496   -0.9869951667    0.2919225809
C       -0.1522222650    0.3562791963    0.3733020005
C       -1.4775278191    0.6615944259   -0.2901361607
N       -0.7817166044    0.3916557742   -2.9250770222
O       -2.8277903206    1.8002533077   -2.2397693789
O       -0.4478729602    2.6493259329   -1.7976503842
F       -0.1111553550    0.9479399420    1.6354807112
S       -1.4294136595    1.5659557254   -1.8656765012
H        1.2426802591    0.3389084176   -1.3729200610
H        2.0085372803    0.6803979803    0.2571164088
H        0.0913073104   -1.7122600619   -0.3982998686
H        0.9104349744   -1.3900298876    1.2176918704
H       -2.0576740602    1.3170909275    0.3636429963
H       -2.0703853630   -0.2320999953   -0.4950010814
H       -1.5252865101    0.0481496412   -3.5343509579
H       -0.0551295777    0.8376401742   -3.4858799610
17   
torsion grid (135,)
C        1.1890958821    0.3567413577   -0.2265382564
C        0.5187692621   -0.9647817639    0.1264676242
C       -0.1719645910    0.3369065597    0.3972551866
C       -1.4797199017    0.7405443869   -0.2521776334
N       -0.8023333253    0.2546940793   -2.8575734260
O       -2.7984688371    1.7778234294   -2.2722894660
O       -0.3909670660    2.5753319253   -1.9002600162
F       -0.1896942369    0.7316570500    1.7358833548
S       -1.4076392166    1.5225540980   -1.8869057036
H        1.2966927950    0.6359470148   -1.2663832672
H        1.9829557161    0.7026897128    0.4274007351
H        0.1341446316   -1.5684497117   -0.6902654417
H        0.8922242303   -1.5099636018    0.9873425511
H       -1.9562903538    1.5057558890    0.3664368459
H       -2.1758058680   -0.0941247990   -0.3619280136
H       -1.5603689028   -0.1165522973   -3.4315281401
H       -0.0685826666    0.6332548934   -3.4570852689
17   
torsion grid (150,)
C        1.2000969467    0.4434657096   -0.1410095178
C        0.5390818590   -0.9266302704   -0.0099196995
C       -0.1863088818    0.3145536071    0.4047487226
C       -1.4697158015    0.8136933169   -0.2267110772
N       -0.8478194878    0.1366389723   -2.8127010666
O       -2.7882510635    1.7483243627   -2.2945543115
O       -0.3545797327    2.4968869952   -2.0061286288
F       -0.2844934363    0.5082309560    1.7847521931
S       -1.4001101272    1.4756796393   -1.9131425103
H        1.3446823432    0.8782931551   -1.1223294373
H        1.9597964997    0.6992049237    0.5905585246
H        0.2078734071   -1.4186722528   -0.9184249004
H        0.8819852960   -1.5754357989    0.7896973870
H       -1.8401234211    1.6637356054    0.3537876987
H       -2.2459912742    0.0448963334   -0.2471829485
H       -1.6165506360   -0.2291297984   -3.3752913842
H       -0.0875249385    0.4462927663   -3.4182973792
17   
torsion grid (165,)
C        1.2228380400    0.5407641954    0.0139101733
C        0.6142254926   -0.8577657525   -0.1156290075
C       -0.1948838562    0.2835910790    0.4091710105
C       -1.4389496212    0.8599036348   -0.2341034823
N       -0.9951540892    0.0127387279   -2.8203744966
O       -2.7321802254    1.8381981544   -2.2911995133
O       -0.2233636180    2.3293982440   -2.1326764544
F       -0.4287621232    0.2561629100    1.7875032961
S       -1.3663637938    1.4302122987   -1.9537863314
H        1.4165664243    1.1235876103   -0.8787997282
H        1.9128422163    0.7013461285    0.8360293764
H        0.3790611392   -1.2325133473   -1.1053407478
H        0.9187566839   -1.6010277430    0.6143373440
H       -1.7364447936    1.7629829987    0.3079017692
H       -2.2685699445    0.1488797601   -0.1987928791
H       -1.8241627216   -0.3030167541   -3.3243401499
H       -0.2434076584    0.2265860776   -3.4759585144
17   
torsion grid (180,)
C        1.2264284204    0.6464031573    0.2142631347
C        0.7379738987   -0.7405571153   -0.2101594310
C       -0.2018678540    0.2478985581    0.3983818954
C       -1.4069904634    0.8818063389   -0.2624498256
N       -1.2379596036   -0.1166511362   -2.8207561173
O       -2.5756989666    2.0252308531   -2.3069821185
O       -0.0151726609    2.0308402942   -2.2640677855
F       -0.5709436589   -0.0222224400    1.7197992052
S       -1.2992612107    1.3736326383   -2.0036522282
H        1.4636015946    1.3694617167   -0.5571409344
H        1.8170624645    0.7038498232    1.1230039922
H        0.6415455067   -0.9637625522   -1.2662079571
H        1.0137933191   -1.5803983418    0.4196167229
H       -1.6620431455    1.8158815022    0.2476287114
H       -2.2692540537    0.2121694524   -0.2053265389
H       -2.1413768370   -0.3026788011   -3.2570908565
H       -0.5077891985   -0.0608757253   -3.5310082043
