19   
torsion grid (-165,)
C        2.6981516864   -2.4891329430   -0.3456508864
C        0.0625377500   -0.0553411887   -0.4357556946
C       -2.3506910457   -0.0287394397   -1.0678476705
C       -1.5174416031    1.3207762318    0.9210814453
C       -1.3570562086    0.0275578875    0.1046610127
N        2.0748232873   -1.2964785892   -0.5170483316
N        0.7972580049   -1.1209347812   -0.0022070235
O        2.2184100677   -3.4140017413    0.3064418820
O        0.5598710185    0.7785860611   -1.1982795128
H        3.6834773988   -2.5201923432   -0.8392958055
H       -2.1705148733    0.8022985660   -1.7552215143
H       -3.3772075683    0.0432877701   -0.6946983232
H       -2.2568400968   -0.9638513255   -1.6297692559
H       -1.3101041509    2.1913825163    0.2929184620
H       -0.8315650557    1.3427641693    1.7740665361
H       -2.5404815478    1.4006232255    1.3022851184
H       -1.5355635148   -0.8311915042    0.7642657797
H        2.3612983764   -0.5538275766   -1.1487388419
H        0.4416650800   -1.9329592275    0.4910415736
19   
torsion grid (-150,)
C        2.6256672834   -2.5151644241   -0.4469810567
C        0.0930013390   -0.0292918160   -0.3699685372
C       -2.3023423994   -0.0919592145   -1.0598422882
C       -1.5554564821    1.3582714747    0.8925570103
C       -1.3407905130    0.0383967280    0.1336967229
N        2.1173902175   -1.2536151663   -0.4074746070
N        0.8415324101   -1.0661105510    0.1194737306
O        2.0804029371   -3.4805855644    0.0811653276
O        0.5932964494    0.7977651208   -1.1363879728
H        3.5961671226   -2.5575741199   -0.9687148239
H       -2.1274362341    0.7157785313   -1.7757930296
H       -3.3394310307   -0.0334945150   -0.7146882833
H       -2.1701262403   -1.0459057661   -1.5810251766
H       -1.3552168574    2.2083315226    0.2346788798
H       -0.8918350167    1.4326701921    1.7599808283
H       -2.5894915968    1.4254426792    1.2455387526
H       -1.5129920218   -0.7977235856    0.8231607743
H        2.4006146980   -0.4993906036   -1.0281742760
H        0.4547853093   -1.9101579022    0.5303436233
19   
torsion grid (-135,)
C        2.5434284722   -2.5217149871   -0.5313406884
C        0.1223984084   -0.0191072397   -0.3230704979
C       -2.2570599011   -0.1470505363   -1.0538059796
C       -1.5708698744    1.3933367887    0.8519165180
C       -1.3214152080    0.0474913528    0.1516950664
N        2.1569528869   -1.2334623783   -0.2943968402
N        0.8829077919   -1.0170887014    0.2384076688
O        1.9223373126   -3.4998448155   -0.1284660549
O        0.6234241802    0.7822292716   -1.1136259655
H        3.5035015518   -2.5753860978   -1.0716273346
H       -2.0828149057    0.6355080000   -1.7973554187
H       -3.3014777902   -0.0944847233   -0.7305540269
H       -2.0979387904   -1.1178400100   -1.5347831107
H       -1.3714638890    2.2194459215    0.1639542662
H       -0.9252060535    1.5130718059    1.7277614981
H       -2.6124023877    1.4577046452    1.1827269523
H       -1.4938291603   -0.7622022902    0.8717882706
H        2.4641375591   -0.4569643076   -0.8755096140
H        0.4742718420   -1.8683384931    0.6126247158
19   
torsion grid (-120,)
C        2.4311657600   -2.5120860204   -0.7168778705
C        0.1571027283   -0.0122282270   -0.2621370280
C       -2.2072182290   -0.2239010746   -1.0114217214
C       -1.5790443552    1.4239546964    0.8238693849
C       -1.2927233731    0.0510134240    0.1955147813
N        2.1806038856   -1.2573893746   -0.2243698568
N        0.9155066798   -1.0064425978    0.3208796778
O        1.7137463243   -3.4816227253   -0.5041064986
O        0.6632766958    0.7856897413   -1.0500404604
H        3.3887812718   -2.5579024849   -1.2634032778
H       -2.0415443221    0.5263327511   -1.7895555795
H       -3.2568409834   -0.1809215873   -0.7039918815
H       -2.0187136063   -1.2125422304   -1.4427904628
H       -1.3867995980    2.2186055087    0.0979556813
H       -0.9478253630    1.6010388281    1.7005438821
H       -2.6260647484    1.4829878645    1.1379382292
H       -1.4587349797   -0.7262623097    0.9518651759
H        2.5606637951   -0.4362429980   -0.6877943227
H        0.4803720487   -1.8531418095    0.6730633680
19   
torsion grid (-105,)
C        2.3256254029   -2.5769546637   -0.9106002439
C        0.2831281332   -0.0828787505   -0.1157379830
C       -2.0281669868   -0.4490450489   -0.9416340531
C       -1.5435831849    1.4246060341    0.7142272906
C       -1.1873582795    0.0000139068    0.2698182522
N        2.2233029672   -1.4696867254   -0.1032215396
N        0.9728675420   -1.1509926606    0.4368275589
O        1.4615380631   -3.4372586616   -1.0017954800
O        0.8551013234    0.7345099387   -0.8300995999
H        3.3105666840   -2.6332346128   -1.4068914725
H       -1.8561193626    0.2198505564   -1.7899396563
H       -3.0929548170   -0.4215149590   -0.6895095554
H       -1.7764298679   -1.4682582856   -1.2526598903
H       -1.3228435419    2.1365566774   -0.0852852315
H       -0.9725736264    1.7206364762    1.5999783940
H       -2.6093440291    1.4883819054    0.9560671287
H       -1.3720176729   -0.6911949478    1.1017063070
H        2.7830305998   -0.6475753042   -0.3036634264
H        0.4632186424   -1.9772632771    0.7297983671
19   
torsion grid (-90,)
C        2.2392784091   -2.4481979265   -1.0503398954
C        0.2995090890   -0.0707808969   -0.0799183480
C       -2.0002636471   -0.5025944541   -0.8961148539
C       -1.5447119305    1.4709879034    0.6500624053
C       -1.1737552660    0.0263699905    0.2934814060
N        2.2056317345   -1.5138911362   -0.0385537772
N        0.9734948393   -1.1419899433    0.4958922924
O        1.2943674050   -3.1538982196   -1.3634485053
O        0.8792296505    0.7235844719   -0.8092586222
H        3.2470451406   -2.5287210658   -1.4967880388
H       -1.8351349197    0.1233118635   -1.7779548720
H       -3.0667712874   -0.4805002789   -0.6504543563
H       -1.7262561900   -1.5310355730   -1.1523821794
H       -1.3249143023    2.1357634566   -0.1893193333
H       -0.9815090482    1.8251274008    1.5193963943
H       -2.6124541729    1.5400364170    0.8816045025
H       -1.3605806082   -0.6170597712    1.1627878619
H        2.9019548751   -0.7777408117   -0.0194317417
H        0.4410978179   -1.9279851945    0.8495530750
19   
torsion grid (-75,)
C        2.1661730854   -2.3020648513   -1.1580488842
C        0.3307549077   -0.0716116469   -0.0397707578
C       -1.9653742104   -0.5346651331   -0.8439178086
C       -1.5105924995    1.5129696429    0.6037400474
C       -1.1432236142    0.0513735132    0.3224033801
N        2.1916286789   -1.5736132931    0.0151846236
N        0.9870426226   -1.1446329348    0.5666957376
O        1.1671629615   -2.8235514239   -1.6211793657
O        0.9233533406    0.6945077559   -0.7849576617
H        3.1774955597   -2.4088603532   -1.5915518767
H       -1.8035649958    0.0545511747   -1.7512709206
H       -3.0321111855   -0.5092808198   -0.5993686785
H       -1.6815892148   -1.5695198004   -1.0591567762
H       -1.2810430032    2.1344116734   -0.2656646026
H       -0.9528980398    1.9078876103    1.4589651241
H       -2.5799028793    1.5977409058    0.8225759594
H       -1.3363663534   -0.5469208826    1.2222741856
H        2.9714719328   -0.9464385906    0.1766188156
H        0.4229426950   -1.9044265056    0.9296489883
19   
torsion grid (-60,)
C        2.1238963243   -2.1827062061   -1.2319384908
C        0.3453024391   -0.1057625745   -0.0470641903
C       -1.9559579200   -0.5735959385   -0.8327714686
C       -1.4794733076    1.5168446648    0.5442122203
C       -1.1267253293    0.0428453303    0.3126221902
N        2.1740231965   -1.6503005273    0.0471184839
N        0.9987874039   -1.1554042205    0.6119673136
O        1.1046515856   -2.5482821120   -1.7864858013
O        0.9388173645    0.6215265454   -0.8272564419
H        3.1363208207   -2.2962548771   -1.6614667909
H       -1.7895469433   -0.0154529853   -1.7585853139
H       -3.0219043149   -0.5308867443   -0.5870081731
H       -1.6798193339   -1.6161023284   -1.0171350096
H       -1.2455515693    2.1057280037   -0.3464111182
H       -0.9167211415    1.9355236679    1.3847457343
H       -2.5476000767    1.6192134670    0.7613890136
H       -1.3248421067   -0.5218487627    1.2330425079
H        3.0005079657   -1.1121943189    0.2855948716
H        0.4123324856   -1.8861083220    1.0003263094
19   
torsion grid (-45,)
C        2.1036297050   -2.0614576839   -1.2705636117
C        0.3469152601   -0.1267938125   -0.0261708506
C       -1.9581261601   -0.6216637822   -0.7889317032
C       -1.4737600987    1.5209672833    0.5009683825
C       -1.1247962455    0.0380143340    0.3291334929
N        2.1302784502   -1.7386464299    0.0822598672
N        0.9956858327   -1.1642304625    0.6647333355
O        1.0946308690   -2.2716744686   -1.9137876610
O        0.9436518958    0.5817271962   -0.8190722612
H        3.1274092753   -2.1779994817   -1.6718632022
H       -1.7879607664   -0.1056281635   -1.7379722581
H       -3.0235088966   -0.5619373443   -0.5441501425
H       -1.6886096712   -1.6724348036   -0.9300092099
H       -1.2405912208    2.0721272564   -0.4136344097
H       -0.9077715113    1.9725514356    1.3220055792
H       -2.5411586459    1.6345982573    0.7161399858
H       -1.3235764841   -0.4884870289    1.2719645343
H        2.9950579644   -1.3138055339    0.4039863132
H        0.3832378039   -1.8632564815    1.0730723059
19   
torsion grid (-30,)
C        2.1084194996   -1.9200510184   -1.2846102027
C        0.3404673575   -0.1041758842    0.0323795756
C       -1.9534067990   -0.6727234616   -0.7185029949
C       -1.5099718964    1.5404993941    0.4603315415
C       -1.1367858877    0.0571857258    0.3685835958
N        2.0515998215   -1.8214401151    0.1056976550
N        0.9739695165   -1.1596002571    0.7188980680
O        1.1460454093   -1.9536430660   -2.0235028347
O        0.9525055174    0.6229273780   -0.7297129579
H        3.1520220853   -2.0546780877   -1.6252922103
H       -1.7706562694   -0.2172383948   -1.6955899737
H       -3.0220391016   -0.6010436619   -0.4919309565
H       -1.6823639566   -1.7300951272   -0.7918023572
H       -1.2883183803    2.0457803486   -0.4830527970
H       -0.9486029042    2.0451325775    1.2529234047
H       -2.5785045550    1.6475951406    0.6731542912
H       -1.3345925302   -0.4229514794    1.3363759579
H        2.9395962662   -1.5498357047    0.5203451850
H        0.3233353723   -1.8284405899    1.1214108078
19   
torsion grid (-15,)
C        2.1087007255   -1.8397958120   -1.3841723708
C        0.3379919988   -0.0850492132    0.0239299385
C       -1.9597759600   -0.7171919107   -0.6664002278
C       -1.5308007665    1.5515942611    0.4067362461
C       -1.1372948556    0.0719509553    0.3745532650
N        1.9542748930   -1.9236127038    0.0022505166
N        0.9695426952   -1.1669082579    0.6783466997
O        1.2126723921   -1.6805124185   -2.1862255997
O        0.9494497148    0.6668396090   -0.7124582935
H        3.1586082990   -2.0424521256   -1.6682677976
H       -1.7867692180   -0.3141316206   -1.6679242081
H       -3.0268558049   -0.6386719823   -0.4351994817
H       -1.6877631888   -1.7771183698   -0.6856938702
H       -1.3360603090    2.0171603177   -0.5626057163
H       -0.9597657440    2.0993336909    1.1626702205
H       -2.5961370148    1.6532185481    0.6374711681
H       -1.3141319145   -0.3686127587    1.3653639522
H        2.8491032165   -1.8351238493    0.4792771599
H        0.2926311770   -1.8001005308    1.0971768411
19   
torsion grid (0,)
C        2.2156879219   -1.7997093207   -1.4249652502
C        0.3664668075   -0.0651786830    0.0121375736
C       -1.9327581666   -0.7609487276   -0.6211496178
C       -1.5262271778    1.5558560956    0.3523260177
C       -1.1085136109    0.0834162993    0.3743406522
N        1.8985467805   -2.0041785318   -0.0774770789
N        0.9977295574   -1.1670962111    0.6398365214
O        1.4465893096   -1.4553444090   -2.2966245497
O        0.9755988056    0.7097066250   -0.7001033762
H        3.2604795635   -2.1099326871   -1.6189880375
H       -1.7798466382   -0.3980955918   -1.6413902732
H       -2.9980277386   -0.6890973740   -0.3801013918
H       -1.6482188977   -1.8180619325   -0.5986233430
H       -1.3519624546    1.9855988818   -0.6372232485
H       -0.9533991389    2.1424986760    1.0767651584
H       -2.5898795260    1.6497625129    0.5939650013
H       -1.2648653045   -0.3195132893    1.3848399490
H        2.7532299005   -2.0986005423    0.4683119995
H        0.3029200647   -1.7703992004    1.0747010551
19   
torsion grid (15,)
C        2.9132893006   -0.1010917865   -0.1122803761
C        0.1204772835   -0.5644250435   -0.5342714200
C       -2.2894092502   -0.0470007737   -1.0271622563
C       -1.0698514211    1.0627888686    0.9128354673
C       -1.2359566710   -0.2202084866    0.0706028023
N        2.2979580286   -1.2756807289    0.3280127273
N        0.8952711390   -1.4394560326    0.2604611555
O        2.4493684559    1.0161516608   -0.0211737825
O        0.5045468746   -0.1722542149   -1.6206335405
H        3.9389205467   -0.3130431613   -0.4689742278
H       -1.9864209110    0.7392300672   -1.7230820951
H       -3.2527269004    0.2271656323   -0.5851734680
H       -2.4224043740   -0.9694365793   -1.6007002499
H       -0.7480405185    1.8922161859    0.2772637596
H       -0.3206675465    0.9417399838    1.7014275075
H       -2.0235567685    1.3275444507    1.3803839382
H       -1.5426834513   -1.0378018722    0.7374104066
H        2.7629413448   -2.0998639212   -0.0469118667
H        0.5244069588   -1.5190089996    1.2042394347
19   
torsion grid (30,)
C        2.8861215543   -0.1648300174   -0.0201431094
C        0.1004357761   -0.5576875539   -0.5132311859
C       -2.3230224966   -0.1166971431   -1.0078056525
C       -1.1089584425    1.1143709941    0.8617291727
C       -1.2563268185   -0.2126799671    0.0880285391
N        2.2599192149   -1.3893528410    0.2129293948
N        0.8570998087   -1.4629508499    0.2578140735
O        2.4386781925    0.9199987434    0.2900116651
O        0.5041981944   -0.1322804118   -1.5809670042
H        3.8944570878   -0.3159853707   -0.4487532024
H       -2.0420446433    0.6401008983   -1.7445019186
H       -3.2879574130    0.1600534152   -0.5709591331
H       -2.4431163489   -1.0696565887   -1.5326269517
H       -0.8203742118    1.9179622607    0.1787037368
H       -0.3416459727    1.0508589865    1.6389484538
H       -2.0615283766    1.3784397411    1.3321824243
H       -1.5407153513   -1.0015864867    0.7972754360
H        2.6548351767   -2.1475934248   -0.3378444430
H        0.5320198027   -1.5474950692    1.2169095035
19   
torsion grid (45,)
C        2.9476071042   -0.1728111210    0.1024655782
C        0.1384778072   -0.5098103516   -0.5101465908
C       -2.3009799586   -0.1670904719   -0.9999729936
C       -1.1103334619    1.1778412020    0.8062914515
C       -1.2228582226   -0.1837049589    0.0897906886
N        2.2893265451   -1.3980299714    0.1016978955
N        0.8982415377   -1.4208610735    0.2425965985
O        2.5150398558    0.8469188943    0.6015625625
O        0.5501590344   -0.0535774887   -1.5633340099
H        3.9548235708   -0.2623148686   -0.3450328603
H       -2.0442007864    0.5605067085   -1.7741146224
H       -3.2690110749    0.1071813250   -0.5684186751
H       -2.4026782828   -1.1471227030   -1.4769958057
H       -0.8703625878    1.9632714771    0.0841797433
H       -0.3225093214    1.1735176231    1.5652226751
H       -2.0615695731    1.4247076732    1.2887156812
H       -1.4762426225   -0.9512557278    0.8329993270
H        2.6265806909   -2.0653932859   -0.5858297007
H        0.6154627778   -1.5263568791    1.2117923493
19   
torsion grid (60,)
C        3.0087573463   -0.2190717028    0.2073951166
C        0.1347014293   -0.4890964929   -0.5326927997
C       -2.3204717196   -0.2050992707   -0.9843407972
C       -1.1162425457    1.2184752383    0.7523985256
C       -1.2202712816   -0.1673263156    0.0828017129
N        2.2920953167   -1.3866913442   -0.0047526411
N        0.9155745203   -1.3765325706    0.2195879575
O        2.6121773815    0.7221483009    0.8683577364
O        0.5298473927   -0.0410995271   -1.5971448617
H        4.0161806153   -0.2764471969   -0.2444833270
H       -2.0921123852    0.5001645358   -1.7875601951
H       -3.2841161156    0.0675388927   -0.5420785196
H       -2.4153768901   -1.2023521453   -1.4258713233
H       -0.9113011180    1.9844921976   -0.0009741359
H       -0.3095558887    1.2521317556    1.4907594404
H       -2.0593175431    1.4639259382    1.2512243013
H       -1.4444304571   -0.9146838992    0.8551493833
H        2.5733470563   -1.9578171206   -0.7948268114
H        0.6774936131   -1.4751068124    1.2005546997
19   
torsion grid (75,)
C        3.0721440395   -0.3073479974    0.3124875570
C        0.1031288807   -0.4871585454   -0.5519858970
C       -2.3656954898   -0.2444040986   -0.9539311578
C       -1.1408901967    1.2337280253    0.7224716281
C       -1.2420980688   -0.1679509723    0.0862854029
N        2.2781910214   -1.3657649203   -0.0839171073
N        0.9167670158   -1.3310636432    0.2067270410
O        2.7342171612    0.5400301963    1.1200903943
O        0.4661540784   -0.0671238802   -1.6406602521
H        4.0771812167   -0.3602455780   -0.1449047227
H       -2.1647259498    0.4442805172   -1.7785959226
H       -3.3225392549    0.0266736747   -0.4962554932
H       -2.4576308014   -1.2528884367   -1.3697448833
H       -0.9620198326    1.9858296137   -0.0514764858
H       -0.3207499341    1.2919763918    1.4448030508
H       -2.0758842929    1.4797985346    1.2359044623
H       -1.4380058753   -0.8997217151    0.8807433936
H        2.5088020419   -1.8448762890   -0.9469557608
H        0.7190405595   -1.4197875105    1.1968080721
19   
torsion grid (90,)
C        3.1839244648   -0.4656206254    0.4595347806
C        0.1205809863   -0.4179331807   -0.5260125036
C       -2.3623438772   -0.2810368196   -0.8760402888
C       -1.1579570455    1.3101284984    0.7082960396
C       -1.2191383503   -0.1192113910    0.1337905301
N        2.2971770954   -1.3294933151   -0.1435628827
N        0.9491172274   -1.2648263094    0.2015255730
O        2.9249329244    0.2040582468    1.4461755671
O        0.4620745613    0.0180028839   -1.6179405101
H        4.1795533634   -0.5049936854   -0.0185889900
H       -2.2077824906    0.3823523899   -1.7309785251
H       -3.3188745545   -0.0302016727   -0.4063573287
H       -2.4228667056   -1.3081712624   -1.2499274467
H       -1.0064686545    2.0341052282   -0.0975790923
H       -0.3381682148    1.4214878945    1.4252349136
H       -2.0967699437    1.5496764858    1.2177489002
H       -1.3703578927   -0.8232938465    0.9620008721
H        2.4662109283   -1.6322308243   -1.0957644989
H        0.7875874978   -1.3804090847    1.1949161683
19   
torsion grid (105,)
C        3.2460056778   -0.6681890003    0.5250290066
C        0.1127101156   -0.3477339872   -0.5257681719
C       -2.3757766596   -0.3592102957   -0.8251106865
C       -1.2346117777    1.3824250594    0.6406483428
C       -1.2242284106   -0.0779204500    0.1505735865
N        2.2888420463   -1.2822284872   -0.2477943888
N        0.9536420895   -1.2075436542    0.1608944577
O        3.0520054387   -0.2714755029    1.6648238171
O        0.4346198792    0.1107864824   -1.6178931699
H        4.2282879174   -0.6474410572    0.0205969635
H       -2.2753878057    0.2646548955   -1.7171831557
H       -3.3360511123   -0.1370789008   -0.3487242577
H       -2.3843131982   -1.4072550860   -1.1412387022
H       -1.1248807392    2.0657622441   -0.2062537713
H       -0.4197028075    1.5766530669    1.3456637853
H       -2.1816402950    1.6021394162    1.1436693084
H       -1.3218310672   -0.7420076601    1.0185758269
H        2.3871717712   -1.2849902260   -1.2577146863
H        0.8503787660   -1.3219931330    1.1627844381
19   
torsion grid (120,)
C        3.2707415373   -0.9906929928    0.5447493193
C        0.1247736997   -0.2156130535   -0.5160281944
C       -2.3509777751   -0.4235951388   -0.7838875754
C       -1.3405785934    1.4981545966    0.5441376751
C       -1.2188655912    0.0136304672    0.1603866169
N        2.2653931298   -1.2336233699   -0.3551785527
N        0.9430615192   -1.1424520050    0.0977699507
O        3.0987131647   -0.9289981850    1.7558026567
O        0.4605102711    0.3189861653   -1.5719128350
H        4.2579300752   -0.9301000272    0.0553020031
H       -2.3070877802    0.1475386652   -1.7152915588
H       -3.3231023947   -0.2479950051   -0.3121512384
H       -2.2769000301   -1.4876902284   -1.0300062981
H       -1.2697513882    2.1259481243   -0.3482760499
H       -0.5501656650    1.8003732476    1.2389969898
H       -2.3062482458    1.6831303164    1.0251037252
H       -1.2646239362   -0.5956058422    1.0717308522
H        2.3544970258   -0.9297369429   -1.3212585768
H        0.8744001517   -1.3125643699    1.0962941047
19   
torsion grid (135,)
C        3.3018124842   -1.1403908545    0.5448746602
C        0.1222333263   -0.1719448209   -0.5138347072
C       -2.3466972448   -0.4619340330   -0.7588665370
C       -1.3895181877    1.5307290153    0.5014498385
C       -1.2233336936    0.0393881680    0.1638356670
N        2.2801270427   -1.1387328364   -0.3614571557
N        0.9722211997   -1.0450199552    0.1225875258
O        3.1338679626   -1.2586063181    1.7542525273
O        0.4388442056    0.3416534659   -1.5881454994
H        4.2898884576   -1.0833626224    0.0580292872
H       -2.3255025968    0.0801656484   -1.7082200103
H       -3.3210955113   -0.3011634716   -0.2865593765
H       -2.2412779740   -1.5305516881   -0.9716183399
H       -1.3423657042    2.1320027741   -0.4105774852
H       -0.6058031823    1.8793593758    1.1821111435
H       -2.3581718969    1.7010195277    0.9818332487
H       -1.2453329344   -0.5421568007    1.0940125360
H        2.3744147692   -0.7279640378   -1.2874083595
H        0.9187250297   -1.2276066356    1.1203199408
19   
torsion grid (150,)
C        3.3221007204   -1.2458003461    0.5236935750
C        0.1132876702   -0.1259330053   -0.5014682115
C       -2.3444994342   -0.5035360138   -0.7296390424
C       -1.4519409158    1.5517469287    0.4753335726
C       -1.2361889215    0.0585680161    0.1759506447
N        2.2975749890   -1.0223109449   -0.3434171394
N        1.0043231902   -0.9238350083    0.1651338710
O        3.1576709039   -1.5033394908    1.7132035102
O        0.4060297098    0.3614486571   -1.5962145894
H        4.3051296767   -1.2101440046    0.0254494444
H       -2.3425041610    0.0133761341   -1.6931433335
H       -3.3227353362   -0.3619549050   -0.2591637241
H       -2.2048907488   -1.5734327537   -0.9145168326
H       -1.4247434403    2.1306555207   -0.4518675320
H       -0.6800760773    1.9434273740    1.1461028145
H       -2.4256584593    1.7022884841    0.9521038084
H       -1.2361612509   -0.4983609782    1.1214353352
H        2.3986089259   -0.5710120032   -1.2492379818
H        0.9506342885   -1.1422386884    1.1552157593
19   
torsion grid (165,)
C        3.3239908620   -1.3760204223    0.4863223819
C        0.1327353402   -0.0468041632   -0.4759550647
C       -2.3009712007   -0.5480281806   -0.7066827212
C       -1.5192320636    1.5858273275    0.4366828289
C       -1.2285783743    0.0965411059    0.1877103700
N        2.3301078779   -0.9069299713   -0.3090253621
N        1.0461694498   -0.7958930823    0.2079670831
O        3.1380629832   -1.7779468973    1.6328970160
O        0.4207503403    0.4439095111   -1.5715958103
H        4.3025673795   -1.3717626942   -0.0215064445
H       -2.3162809589   -0.0627183106   -1.6864061350
H       -3.2888008315   -0.4393562692   -0.2476722441
H       -2.1084282786   -1.6153322485   -0.8559827474
H       -1.5110307958    2.1349801950   -0.5087558707
H       -0.7728396041    2.0355546658    1.0997213368
H       -2.5034147268    1.7044307098    0.9008729878
H       -1.2099554164   -0.4288087249    1.1510745455
H        2.4463542308   -0.4427568890   -1.2054967280
H        0.9660137129   -1.1068238263    1.1702609554
19   
torsion grid (180,)
C        2.7518841076   -2.4504399763   -0.2472030438
C        0.0400239215   -0.0935645106   -0.4981337971
C       -2.3841595146    0.0289199526   -1.0774397588
C       -1.4684957221    1.2779375268    0.9406083119
C       -1.3654919866    0.0114042981    0.0743129008
N        2.0352631632   -1.3598058663   -0.6127256246
N        0.7490343027   -1.1949994185   -0.1221768578
O        2.3169594911   -3.3238889584    0.5007511658
O        0.5419000916    0.7452137120   -1.2531522897
H        3.7574735447   -2.4601116265   -0.6989994120
H       -2.1904848518    0.8775063425   -1.7391770888
H       -3.3999759946    0.1206298770   -0.6799928801
H       -2.3317673564   -0.8882944719   -1.6730488449
H       -1.2480536408    2.1645802938    0.3399077155
H       -0.7646349390    1.2486054774    1.7787291323
H       -2.4802165292    1.3744979371    1.3472737646
H       -1.5578879191   -0.8659675223    0.7049959423
H        2.3412951498   -0.6027026060   -1.2169111227
H        0.4348060967   -1.9497459722    0.4774618969
