23   
torsion grid (-165,)
C        1.3982104805    1.1211188363   -1.7830676311
C        1.4289556494   -0.3380416354   -1.3146083720
C        2.7323264727   -0.7128693597   -0.5988373096
C        2.7856975501   -2.1802781069   -0.1525771627
C        3.8961897308   -2.4703387514    0.8636884779
C        3.9697341571   -3.9425307506    1.2856167366
C        5.0727608445   -4.2188520207    2.3136758670
H        0.4528770788    1.3634265379   -2.2808552739
H        2.2099803115    1.3260426927   -2.4907619256
H        1.5161702907    1.8093178367   -0.9377672931
H        1.2818786396   -1.0027487483   -2.1765777291
H        0.5841917981   -0.5246923297   -0.6387005109
H        3.5894386787   -0.4933231928   -1.2498518831
H        2.8478449804   -0.0645651293    0.2813008622
H        1.8198482076   -2.4547179383    0.2944988208
H        2.9069217018   -2.8284371117   -1.0309774848
H        3.7404134481   -1.8454060722    1.7539225694
H        4.8658103241   -2.1653163288    0.4450864339
H        2.9991066534   -4.2487537825    1.6980785410
H        4.1329680237   -4.5657487990    0.3964106510
H        5.1030884988   -5.2770115851    2.5956869968
H        6.0588238737   -3.9510982105    1.9163347855
H        4.9158083469   -3.6343875666    3.2278321937
23   
torsion grid (-150,)
C        1.5886857053    1.2972789301   -1.7446768988
C        1.5428241824   -0.1653199905   -1.2890047090
C        2.8923907685   -0.6774574174   -0.7704116718
C        2.8667719121   -2.1556951497   -0.3409244022
C        3.8564107401   -2.4853616316    0.7829475545
C        3.8552551800   -3.9646227347    1.1852899888
C        4.8307580646   -4.2783609877    2.3254869531
H        0.6091745999    1.6394882332   -2.0962575709
H        2.3037110581    1.4335761165   -2.5644022361
H        1.8978428517    1.9561211376   -0.9246038748
H        1.2060692588   -0.7983451305   -2.1212115481
H        0.7922548440   -0.2805342744   -0.4961303268
H        3.6684094925   -0.5204068070   -1.5308831715
H        3.1863330872   -0.0584787120    0.0888610999
H        1.8557265258   -2.4104885207    0.0062874330
H        3.0564887002   -2.8014935834   -1.2080148111
H        3.6162393192   -1.8697455864    1.6608110827
H        4.8715392431   -2.1942206143    0.4773060692
H        2.8389404780   -4.2572395303    1.4812802186
H        4.1055940863   -4.5777588784    0.3094307729
H        4.8108704435   -5.3412490149    2.5900956426
H        5.8597198283   -4.0233188359    2.0460652283
H        4.5821552101   -3.7055991453    3.2266274726
23   
torsion grid (-135,)
C        1.5739102194    1.2937965838   -1.5932242278
C        1.5627882449   -0.1763038639   -1.1608180299
C        2.9644140205   -0.7327542851   -0.8793519898
C        2.9675301827   -2.2175659225   -0.4517469212
C        3.8765364244   -2.5096967937    0.7484141610
C        3.8867794901   -3.9847540621    1.1649887247
C        4.7862542012   -4.2614583553    2.3751506209
H        0.5601525125    1.6664043475   -1.7765631745
H        2.1513381012    1.4300418780   -2.5151244262
H        2.0284938883    1.9279058671   -0.8228821324
H        1.0782425190   -0.7838965666   -1.9370010961
H        0.9486284191   -0.2902697765   -0.2577003291
H        3.6000768057   -0.5898990194   -1.7622740820
H        3.4199893589   -0.1259383531   -0.0849512408
H        1.9447326096   -2.5199336907   -0.1887666438
H        3.2568412407   -2.8551125846   -1.2964587733
H        3.5524688376   -1.8937597677    1.5989629813
H        4.9028798941   -2.1909231865    0.5173273843
H        2.8602111374   -4.3032156826    1.3905180848
H        4.2159082386   -4.5979681264    0.3155825636
H        4.7739738314   -5.3216667044    2.6507324509
H        5.8258257027   -3.9830767460    2.1661898717
H        4.4600199152   -3.6858204245    3.2492933821
23   
torsion grid (-120,)
C        1.3816811845    1.4457828647   -1.4374530263
C        1.4140712334   -0.0273777509   -1.0171915001
C        2.8357526134   -0.5966121189   -0.9216228340
C        2.8813556716   -2.0764537663   -0.4701472993
C        3.6656362725   -2.2970487207    0.8294976366
C        3.6870568612   -3.7578397938    1.2927525946
C        4.4662435176   -3.9635421972    2.5968403639
H        0.3556211699    1.8257836873   -1.4916546680
H        1.8417535997    1.5853664298   -2.4228012904
H        1.9323533487    2.0713486216   -0.7250714551
H        0.8329512261   -0.6265009422   -1.7307028381
H        0.9160872456   -0.1440592223   -0.0450795769
H        3.3315823694   -0.4794626444   -1.8933323010
H        3.4129745050    0.0191643398   -0.2191699885
H        1.8575484687   -2.4476902106   -0.3297963903
H        3.3166286333   -2.7014038456   -1.2597236796
H        3.2317392070   -1.6708319310    1.6221058810
H        4.6974330904   -1.9434767164    0.6948651859
H        2.6552151148   -4.1107172230    1.4222974012
H        4.1248353428   -4.3812762419    0.5017365246
H        4.4659590050   -5.0153036354    2.9033304735
H        5.5105149698   -3.6485003817    2.4866768099
H        4.0294752787   -3.3777693963    3.4141440953
23   
torsion grid (-105,)
C        1.4080112937    1.4117976612   -1.4443041263
C        1.4730213832   -0.0537979969   -1.0018066662
C        2.8840851698   -0.6502289534   -1.0926855425
C        2.9677533785   -2.1097377938   -0.5900243693
C        3.6273814539   -2.2420313224    0.7887925188
C        3.6540847785   -3.6790069285    1.3213213426
C        4.3273615006   -3.7995856620    2.6932654336
H        0.3887234232    1.8075394101   -1.3764983722
H        1.7417342940    1.5254007203   -2.4825482454
H        2.0529988498    2.0413081900   -0.8201163329
H        0.7919073067   -0.6552826647   -1.6176715547
H        1.1080753169   -0.1415525822    0.0308319879
H        3.2175836332   -0.5910004865   -2.1366556529
H        3.5797817273   -0.0221424885   -0.5211411240
H        1.9606520481   -2.5450216126   -0.5537090791
H        3.5320061802   -2.7223822653   -1.3045090233
H        3.1000101145   -1.5993165696    1.5085468620
H        4.6542698858   -1.8554872145    0.7330832063
H        2.6261839215   -4.0605155619    1.3822865592
H        4.1750798779   -4.3220234497    0.5993308750
H        4.3325190046   -4.8358700416    3.0485575953
H        5.3674398796   -3.4551777028    2.6542419179
H        3.8067840495   -3.1924090993    3.4430841355
23   
torsion grid (-90,)
C        1.4568174915    1.4613345452   -1.5017634016
C        1.5306432797    0.0144232906   -1.0021786773
C        2.8935885733   -0.6429069921   -1.2594565845
C        3.0001429751   -2.0751061700   -0.7009504548
C        3.5197521573   -2.1305396092    0.7417699104
C        3.5607600339   -3.5480670219    1.3236671986
C        4.1030033370   -3.5942711447    2.7567659544
H        0.4694243400    1.8996421798   -1.3198379753
H        1.6533422989    1.5169746431   -2.5790311129
H        2.1995922571    2.0911002127   -0.9982792130
H        0.7509339416   -0.5838537757   -1.4912716426
H        1.3064163217   -0.0121912996    0.0725646032
H        3.0689495186   -0.6538598329   -2.3432097885
H        3.6907129543   -0.0204409935   -0.8312779333
H        2.0200508797   -2.5668879827   -0.7610825223
H        3.6746045438   -2.6686624843   -1.3316698942
H        2.8944013973   -1.4955309740    1.3850204478
H        4.5281153227   -1.6954902765    0.7741104671
H        2.5505337556   -3.9777496086    1.2996730371
H        4.1783291600   -4.1859008682    0.6771702053
H        4.1187067689   -4.6175849557    3.1475885618
H        5.1260711470   -3.2031923420    2.8045874687
H        3.4866100497   -2.9888384454    3.4316301449
23   
torsion grid (-75,)
C        1.4778657206    1.4909424705   -1.4390988323
C        1.5988707853    0.0759207602   -0.8622404175
C        2.8747332932   -0.6463077916   -1.3164165025
C        3.0217797720   -2.0730200367   -0.7636658232
C        3.4252294352   -2.1342498977    0.7154450052
C        3.5780226589   -3.5654274433    1.2439800222
C        3.9930417621   -3.6203248395    2.7186272407
H        0.5556710236    1.9817837476   -1.1092904412
H        1.4721800189    1.4714176759   -2.5353144185
H        2.3203107161    2.1182012725   -1.1248787976
H        0.7266583447   -0.5193937462   -1.1635935935
H        1.5693288691    0.1286245686    0.2330721047
H        2.8773303093   -0.6843385718   -2.4140607864
H        3.7540199989   -0.0519401467   -1.0315026559
H        2.0802338995   -2.6198678036   -0.9113948250
H        3.7790911832   -2.6087374073   -1.3513841554
H        2.6844509125   -1.6050298312    1.3290689974
H        4.3734069511   -1.5950598489    0.8503441224
H        2.6299650552   -4.1030263987    1.1097974856
H        4.3194771547   -4.0988200262    0.6342581119
H        4.0942107202   -4.6532828119    3.0692471723
H        4.9548605012   -3.1185796721    2.8769712980
H        3.2526155974   -3.1227357470    3.3558922721
23   
torsion grid (-60,)
C        1.4661639484    1.5245127463   -1.3959845413
C        1.6956553646    0.1537788990   -0.7489845474
C        2.8602523292   -0.6144986374   -1.3878947312
C        3.0623846379   -2.0399791594   -0.8518429252
C        3.3522808991   -2.1240329997    0.6522542599
C        3.6729020703   -3.5470494907    1.1251125033
C        3.9496036743   -3.6318235241    2.6304291097
H        0.6339350537    2.0575392906   -0.9232809357
H        1.2360556252    1.4246767565   -2.4632243016
H        2.3585054351    2.1555674656   -1.3087593859
H        0.7796379794   -0.4477725786   -0.8281122955
H        1.8817305606    0.2884267247    0.3228211817
H        2.6985689448   -0.6646056661   -2.4730976456
H        3.7867672000   -0.0401616635   -1.2454600781
H        2.1702710621   -2.6408737809   -1.0783002608
H        3.8906646752   -2.5083746935   -1.4000740648
H        2.4936584749   -1.7459249546    1.2208946090
H        4.1958243921   -1.4625091251    0.8972262415
H        2.8357284680   -4.2098734778    0.8684956677
H        4.5418722643   -3.9254715101    0.5705823935
H        4.1763461434   -4.6579334826    2.9400525355
H        4.8023652890   -3.0025213559    2.9110027821
H        3.0838186871   -3.2918982786    3.2107684225
23   
torsion grid (-45,)
C        1.4860400274    1.4762937123   -1.3006879158
C        1.8123626576    0.1373716974   -0.6289480908
C        2.8382706380   -0.6824198447   -1.4227957506
C        3.1287849348   -2.0895955214   -0.8694694048
C        3.3362080073   -2.1673079175    0.6485205356
C        3.7399650851   -3.5678666342    1.1250218059
C        3.9269643570   -3.6545787882    2.6439929637
H        0.7627300140    2.0537347267   -0.7145365165
H        1.0615861173    1.3248948784   -2.3000516489
H        2.3877832491    2.0895057983   -1.4150461146
H        0.8887589659   -0.4457769512   -0.5083790252
H        2.1907625301    0.3239256612    0.3822459837
H        2.5038424818   -0.7723553418   -2.4645656220
H        3.7769142442   -0.1107725260   -1.4568963515
H        2.2955853507   -2.7561269503   -1.1343066675
H        4.0118914785   -2.4956696359   -1.3794810487
H        2.4167129373   -1.8672468769    1.1652859675
H        4.1079630372   -1.4459388769    0.9545030846
H        2.9763428048   -4.2907219150    0.8079535350
H        4.6695879807   -3.8674310131    0.6232446534
H        4.2148446649   -4.6644075604    2.9563331140
H        4.7073770144   -2.9645095718    2.9855924883
H        3.0019215438   -3.3933547846    3.1712589220
23   
torsion grid (-30,)
C        1.5525285641    1.4471246864   -1.2185092615
C        1.9452698182    0.1220618802   -0.5548413964
C        2.8238072315   -0.7458469280   -1.4667009271
C        3.2340670712   -2.1278945946   -0.9057585570
C        3.3728376005   -2.2240692687    0.6195622517
C        3.8327397769   -3.6110376766    1.0849884757
C        3.9543342178   -3.7224575750    2.6090169169
H        0.9358549967    2.0613922944   -0.5532421142
H        0.9821892314    1.2755793588   -2.1389121650
H        2.4404011420    2.0325587794   -1.4854337165
H        1.0356102967   -0.4277702086   -0.2773285371
H        2.4752958558    0.3293294701    0.3812020362
H        2.3203585355   -0.8851786759   -2.4315043532
H        3.7326570152   -0.1687105167   -1.6881111488
H        2.4852306887   -2.8712599784   -1.2130000984
H        4.1729995262   -2.4416776098   -1.3783297920
H        2.4138770986   -1.9879540268    1.0957853773
H        4.0873712727   -1.4707820338    0.9811499466
H        3.1266346847   -4.3676798387    0.7174295074
H        4.7999035192   -3.8469204279    0.6216360843
H        4.2827052548   -4.7222133934    2.9137237208
H        4.6790561442   -2.9993496264    3.0011769637
H        2.9930697629   -3.5238926027    3.0973834432
23   
torsion grid (-15,)
C        1.5575056705    1.3813108485   -1.1908104136
C        2.0385741989    0.1013756847   -0.4973684166
C        2.7774680407   -0.8351366358   -1.4652119875
C        3.3247039221   -2.1658207997   -0.8761044413
C        3.3973172625   -2.2679117524    0.6543797475
C        3.9396235578   -3.6224953432    1.1266026753
C        4.0113000162   -3.7402095320    2.6533137587
H        1.0358466966    2.0438345225   -0.4914394423
H        0.8673701693    1.1518898303   -2.0112363484
H        2.3995770918    1.9405847794   -1.6155385648
H        1.1760205150   -0.4152539775   -0.0570429294
H        2.6955101952    0.3674443426    0.3381663439
H        2.1178035980   -1.0592120436   -2.3122327933
H        3.6138080750   -0.2644193168   -1.8903611476
H        2.6944430906   -2.9940327801   -1.2260017525
H        4.3203064562   -2.3616112277   -1.2919152161
H        2.4023495431   -2.1113251333    1.0880167029
H        4.0355910064   -1.4700897834    1.0579222616
H        3.3056350807   -4.4250825252    0.7265446058
H        4.9384713691   -3.7823058113    0.6992208638
H        4.3996827550   -4.7166790623    2.9629282385
H        4.6662826592   -2.9706982774    3.0784290062
H        3.0204126431   -3.6166852226    3.1058803059
23   
torsion grid (0,)
C        1.5977284348    1.3088417294   -1.0114433076
C        2.1741685551    0.0922397950   -0.2778187341
C        2.7583090913   -0.9423443992   -1.2524687045
C        3.3776879285   -2.2322753724   -0.6349413642
C        3.3507955857   -2.3582887154    0.8957987732
C        3.9877878867   -3.6644690356    1.3859015217
C        3.9682915748   -3.8050500142    2.9122226253
H        1.1842056176    2.0408914782   -0.3091064331
H        0.7947493323    1.0134033162   -1.6970976303
H        2.3683748624    1.8143338287   -1.6053829269
H        1.3868721537   -0.3672936150    0.3313884392
H        2.9477900401    0.4275692478    0.4230522814
H        1.9645951413   -1.2259701107   -1.9547201700
H        3.5170765221   -0.4363064324   -1.8621994915
H        2.8687371115   -3.1094347128   -1.0530255417
H        4.4213700717   -2.3199475421   -0.9609546506
H        2.3172897371   -2.3083294529    1.2612449858
H        3.8781275098   -1.5122314654    1.3543316191
H        3.4627166721   -4.5159142004    0.9326971869
H        5.0238439126   -3.7196194061    1.0259100273
H        4.4304774577   -4.7444910362    3.2347665492
H        4.5133476824   -2.9834164871    3.3915209185
H        2.9419628712   -3.7888587780    3.2972853000
23   
torsion grid (15,)
C        1.7690033803    1.1499107206   -0.8934802084
C        2.3768957673   -0.0596431671   -0.1737793262
C        2.8186924109   -1.1532266849   -1.1579702515
C        3.4428706085   -2.4392406293   -0.5465749446
C        3.2415855499   -2.6583535184    0.9599278874
C        3.9056054493   -3.9476107852    1.4588072976
C        3.7177027258   -4.1753549391    2.9630233571
H        1.4536278522    1.9218051499   -0.1829150877
H        0.8907402919    0.8588267860   -1.4818589241
H        2.4906265102    1.6048672373   -1.5821707421
H        1.6440601951   -0.4670164061    0.5315393970
H        3.2315083595    0.2727481006    0.4294996203
H        1.9350166543   -1.4327399879   -1.7469738005
H        3.5220179831   -0.7171727813   -1.8776929708
H        3.0636199860   -3.3154769766   -1.0858664005
H        4.5253479957   -2.4296822033   -0.7302706376
H        2.1698113752   -2.6963278704    1.1978727341
H        3.6484833955   -1.8078710817    1.5199594487
H        3.4979555069   -4.8035274393    0.9046236106
H        4.9780101782   -3.9161482625    1.2240900136
H        4.2026834182   -5.1007327752    3.2926663265
H        4.1451332603   -3.3496236586    3.5438877033
H        2.6547573973   -4.2452720889    3.2221208092
23   
torsion grid (30,)
C        1.7252551928    1.1958979869   -0.9254292643
C        2.4254215286    0.0296556257   -0.2182297331
C        2.7212323994   -1.1350543430   -1.1734992219
C        3.4720773729   -2.3431767376   -0.5655141938
C        3.2267778317   -2.6106059749    0.9256018139
C        3.9671837242   -3.8541630783    1.4327244368
C        3.7447243539   -4.1170891386    2.9264599467
H        1.5100930497    2.0150843503   -0.2305694077
H        0.7745327705    0.8750733719   -1.3675804400
H        2.3456086380    1.5985245842   -1.7346944001
H        1.7986236842   -0.3206214408    0.6091145727
H        3.3594356827    0.3889023972    0.2349495414
H        1.7574406329   -1.4810097296   -1.5729447496
H        3.2825608690   -0.7618592103   -2.0391437673
H        3.2287273696   -3.2436980946   -1.1427559066
H        4.5525252505   -2.1907003827   -0.6964583884
H        2.1506839777   -2.7338496746    1.1142354249
H        3.5422546977   -1.7422244542    1.5159639768
H        3.6443585106   -4.7297546780    0.8540518506
H        5.0417500117   -3.7393657239    1.2369600874
H        4.2824051346   -5.0109016623    3.2613986972
H        4.0925434770   -3.2720874049    3.5322194266
H        2.6811290301   -4.2653442170    3.1471187100
23   
torsion grid (45,)
C        2.0220453491    1.2700655205   -2.0667128671
C        2.4226686104   -0.0973979608   -1.5010468087
C        1.8963813392   -0.3200031451   -0.0768950767
C        2.1610977459   -1.7172120356    0.5133969063
C        3.5797422264   -2.2608594558    0.3006719533
C        3.8194652004   -3.5982667713    1.0116660743
C        5.2292013342   -4.1553427201    0.7834731929
H        2.4166692408    1.4173963055   -3.0780261896
H        2.4038432916    2.0833308881   -1.4381609754
H        0.9318434600    1.3747582948   -2.1147737736
H        3.5147701790   -0.1853856841   -1.5096791497
H        2.0455326828   -0.8908040000   -2.1612879728
H        2.3538216620    0.4367961181    0.5765559135
H        0.8165904573   -0.1232189300   -0.0536061841
H        1.9356256562   -1.6967714096    1.5874683839
H        1.4522755706   -2.4316198022    0.0708848394
H        4.3157346937   -1.5257073201    0.6577021927
H        3.7721230857   -2.3885817996   -0.7713497567
H        3.6444080587   -3.4728173609    2.0883904317
H        3.0762175863   -4.3289854244    0.6655384256
H        5.3728629639   -5.1096558418    1.3019647713
H        5.4195555428   -4.3232562877   -0.2830735480
H        5.9927830913   -3.4587712846    1.1490697847
23   
torsion grid (60,)
C        1.9243872166    1.2881402079   -2.0317825792
C        2.2832295363   -0.1236413580   -1.5538793841
C        1.9582435111   -0.3465874141   -0.0708600551
C        2.1969615571   -1.7781973884    0.4326149833
C        3.6431612232   -2.2721702419    0.2988556547
C        3.8684903916   -3.6524062408    0.9278759187
C        5.3102391632   -4.1516996723    0.7803882207
H        2.1682295886    1.4278717310   -3.0906406562
H        2.4710177975    2.0479512508   -1.4608393006
H        0.8538213242    1.4881638729   -1.9060925401
H        3.3495987308   -0.3037708288   -1.7325847259
H        1.7414853616   -0.8646177270   -2.1577410085
H        2.5533248829    0.3529632980    0.5333899769
H        0.9072339886   -0.0807117403    0.1053221641
H        1.8981743456   -1.8348900659    1.4878613931
H        1.5324093047   -2.4667753049   -0.1082054213
H        4.3206952164   -1.5449655189    0.7692546736
H        3.9283131000   -2.3136696237   -0.7596972159
H        3.6009562844   -3.6130825240    1.9921556646
H        3.1815212776   -4.3751506926    0.4677055100
H        5.4434092137   -5.1366216678    1.2412338151
H        5.5926517837   -4.2365499708   -0.2755283839
H        6.0172880290   -3.4622471485    1.2565113579
23   
torsion grid (75,)
C        1.8986188894    1.3290845993   -2.0403644742
C        2.1192544764   -0.1242402271   -1.6057826013
C        2.0140225270   -0.3150602446   -0.0864968964
C        2.2199529213   -1.7643977322    0.3822003350
C        3.6808478546   -2.2324371266    0.3503517211
C        3.8661490950   -3.6760926546    0.8325202817
C        5.3288878492   -4.1340575560    0.8101044589
H        1.9685281305    1.4381906380   -3.1281835543
H        2.6456694822    1.9930690148   -1.5898742224
H        0.9096560992    1.6878531443   -1.7315929628
H        3.1022718207   -0.4610972060   -1.9572995648
H        1.3803341840   -0.7708623377   -2.0975592526
H        2.7406244844    0.3380764205    0.4165497705
H        1.0224050698    0.0294107199    0.2364745096
H        1.8466489669   -1.8650973650    1.4100281621
H        1.6044993427   -2.4367322351   -0.2314429239
H        4.2854331260   -1.5610277611    0.9761714091
H        4.0819610977   -2.1425716137   -0.6676823437
H        3.4677773908   -3.7709253862    1.8515050391
H        3.2626343346   -4.3462765875    0.2060586196
H        5.4315904451   -5.1675849051    1.1585941015
H        5.7436833282   -4.0809512809   -0.2033337022
H        5.9505341462   -3.5014072764    1.4544846153
23   
torsion grid (90,)
C        1.8274094774    1.3188024609   -2.0314267128
C        1.9535453127   -0.1482039561   -1.6064921167
C        2.0728807062   -0.3270274279   -0.0867302393
C        2.2675627418   -1.7930998243    0.3459452060
C        3.7405850473   -2.2152975098    0.4263355492
C        3.9353138533   -3.6919361130    0.7886738455
C        5.4103848113   -4.0969841769    0.8888569367
H        1.7278189129    1.4155082374   -3.1181121343
H        2.7074537108    1.8957820482   -1.7241288862
H        0.9489785001    1.7879991341   -1.5726927719
H        2.8263821416   -0.5968822509   -2.0993435996
H        1.0802125889   -0.7104882192   -1.9617668959
H        2.9039684884    0.2823985033    0.2928762104
H        1.1646829130    0.0788862951    0.3778158387
H        1.8108949013   -1.9514551447    1.3315375084
H        1.7294915479   -2.4549688767   -0.3457585808
H        4.2506182726   -1.5884964257    1.1707119758
H        4.2367969249   -2.0118068795   -0.5330578665
H        3.4326095698   -3.8987485009    1.7429792352
H        3.4333582749   -4.3171950985    0.0384395481
H        5.5195692987   -5.1562428526    1.1461694849
H        5.9311283726   -3.9290581701   -0.0611735498
H        5.9291666226   -3.5118623960    1.6572285929
23   
torsion grid (105,)
C        1.8488211226    1.2422534055   -2.0742203994
C        1.9159842161   -0.2241480043   -1.6347245294
C        2.2170105775   -0.3934521702   -0.1394627794
C        2.3465052824   -1.8705682997    0.2977926037
C        3.7959540957   -2.3067035211    0.5480585299
C        3.9363977072   -3.7874173205    0.9181413660
C        5.3876047569   -4.2072599156    1.1785274578
H        1.6248397243    1.3319700957   -3.1428368828
H        2.8004775699    1.7537926070   -1.8882588181
H        1.0705100363    1.7837053382   -1.5235024732
H        2.6838642139   -0.7477507366   -2.2207543162
H        0.9650710798   -0.7218482395   -1.8650493709
H        3.1400728540    0.1471741052    0.1071739461
H        1.4203682685    0.1005893955    0.4314024613
H        1.7690596485   -2.0439372459    1.2146918539
H        1.8984010958   -2.5209481638   -0.4646077003
H        4.2223063180   -1.6890820002    1.3504233986
H        4.3991313961   -2.0989728034   -0.3476404777
H        3.3287624019   -3.9961886943    1.8088553902
H        3.5155943468   -4.4025262393    0.1116597301
H        5.4578759978   -5.2685811715    1.4408350986
H        6.0116825765   -4.0404902051    0.2927456954
H        5.8236579562   -3.6304328305    2.0025620441
23   
torsion grid (120,)
C        1.8535310780    1.2642988879   -2.1116561504
C        1.8868507245   -0.2091731237   -1.6925651745
C        2.3653461944   -0.4154893465   -0.2493674868
C        2.4297927486   -1.9025942241    0.1751590349
C        3.8334656320   -2.3615060872    0.5898148331
C        3.9040176189   -3.8411749136    0.9829757549
C        5.3133966072   -4.2893924656    1.3865082684
H        1.5141017640    1.3801371251   -3.1467922417
H        2.8480099511    1.7192073941   -2.0333489236
H        1.1758266863    1.8414897403   -1.4716334503
H        2.5439797548   -0.7702070216   -2.3708174066
H        0.8863527419   -0.6470060232   -1.8068290084
H        3.3585511764    0.0402056440   -0.1412568669
H        1.7079306291    0.1453891336    0.4266554209
H        1.7339498171   -2.0923218915    1.0017532653
H        2.0841476366   -2.5347389471   -0.6534626686
H        4.1829956604   -1.7453293893    1.4299939348
H        4.5328420798   -2.1714460059   -0.2368599679
H        3.2082985924   -4.0282758978    1.8118293401
H        3.5499300732   -4.4549823777    0.1440088542
H        5.3340928632   -5.3492040958    1.6631115290
H        6.0239527873   -4.1452903334    0.5641784054
H        5.6803599200   -3.7135814690    2.2442207105
23   
torsion grid (135,)
C        1.7490440205    1.2263975203   -1.8432894994
C        1.7776135781   -0.2589684975   -1.4675697502
C        2.4182944879   -0.5226010487   -0.0988326830
C        2.4443234704   -2.0162220030    0.2960603244
C        3.7881286417   -2.4756429885    0.8749729202
C        3.8092870221   -3.9548928016    1.2759779942
C        5.1622194136   -4.4060657434    1.8382311713
H        1.2965848296    1.3830133909   -2.8286355182
H        2.7617492586    1.6457544544   -1.8704191612
H        1.1713219015    1.8071295276   -1.1146788279
H        2.3301836714   -0.8218777735   -2.2315083400
H        0.7548980419   -0.6594869286   -1.4747887637
H        3.4463395270   -0.1360582864   -0.1224044794
H        1.8988084293    0.0647416845    0.6687541472
H        1.6416075413   -2.2335701863    1.0116804785
H        2.2255131086   -2.6279604728   -0.5897152562
H        4.0407940818   -1.8591606195    1.7493349603
H        4.5778969902   -2.2882961824    0.1340280281
H        3.0230869340   -4.1389419620    2.0201980968
H        3.5516341570   -4.5692300779    0.4028635739
H        5.1487479217   -5.4658106893    2.1155350195
H        5.9625952777   -4.2639328540    1.1026289677
H        5.4298962307   -3.8306613711    2.7321714546
23   
torsion grid (150,)
C        1.6197131419    1.2853297405   -1.7888318701
C        1.6579797623   -0.2096335418   -1.4533376489
C        2.5023825880   -0.5273730428   -0.2129429668
C        2.5209625938   -2.0226115856    0.1534163533
C        3.8174339053   -2.4703298518    0.8388823768
C        3.8205714566   -3.9512363783    1.2351145619
C        5.1302376596   -4.3935429955    1.8978557091
H        1.0219638355    1.4806303860   -2.6858890604
H        2.6287018505    1.6748907940   -1.9687067286
H        1.1848608545    1.8640863089   -0.9655869841
H        2.0606028756   -0.7685846805   -2.3081748763
H        0.6340560940   -0.5782496821   -1.3036867483
H        3.5311995082   -0.1911628462   -0.4036912978
H        2.1483777862    0.0645027894    0.6411943584
H        1.6590600343   -2.2637568012    0.7889215448
H        2.3934774296   -2.6173967171   -0.7618249936
H        3.9924549616   -1.8559177407    1.7336063696
H        4.6628882592   -2.2724516910    0.1655615715
H        2.9813011653   -4.1451032027    1.9161254518
H        3.6361083677   -4.5639463306    0.3425395258
H        5.1034479884   -5.4537709835    2.1723426563
H        5.9830647380   -4.2445975996    1.2252377535
H        5.3251956052   -3.8175804563    2.8100748573
23   
torsion grid (165,)
C        1.4718535217    1.0930461422   -1.8878225233
C        1.5509230080   -0.3847481866   -1.4885471752
C        2.5878711791   -0.6571487271   -0.3921275357
C        2.6534826656   -2.1293113538    0.0364951829
C        3.9081616530   -2.4749435112    0.8467064898
C        3.9583596288   -3.9381977800    1.3018431948
C        5.2241300311   -4.2772292046    2.0973366500
H        0.7317920123    1.2564367115   -2.6788807447
H        2.4392409053    1.4544051853   -2.2561241586
H        1.1899962991    1.7187362259   -1.0329170450
H        1.7963634234   -0.9908668613   -2.3704171737
H        0.5634212550   -0.7260609019   -1.1497199753
H        3.5759253390   -0.3446094101   -0.7586706043
H        2.3772860032   -0.0267808357    0.4824877285
H        1.7553202287   -2.3852113370    0.6146055649
H        2.6275546102   -2.7653938964   -0.8594879842
H        3.9683777324   -1.8200376855    1.7275596946
H        4.7984328587   -2.2525085837    0.2423359442
H        3.0721996193   -4.1576382406    1.9120068455
H        3.8919892570   -4.5923174351    0.4222198677
H        5.2327688675   -5.3270748064    2.4102283405
H        6.1256351966   -4.1000206460    1.4991726954
H        5.3005158733   -3.6595050839    2.9998189438
23   
torsion grid (180,)
C        1.4358276484    1.1091800034   -1.8414293212
C        1.4879618720   -0.3643305730   -1.4220825407
C        2.6722011011   -0.6860029430   -0.5027409574
C        2.7337623848   -2.1573511017   -0.0772761419
C        3.9181102361   -2.4778136167    0.8415824747
C        3.9806791349   -3.9493715890    1.2678296658
C        5.1683365725   -4.2588882101    2.1862368932
H        0.5812734959    1.3103771292   -2.4967256617
H        2.3452995022    1.3984866307   -2.3809352723
H        1.3479218289    1.7654128113   -0.9676242641
H        1.5425808181   -0.9983812827   -2.3169778857
H        0.5525073055   -0.6341984896   -0.9142069266
H        3.6083954776   -0.4150720905   -1.0106481643
H        2.6181250631   -0.0507662865    0.3924587475
H        1.7973795824   -2.4275418844    0.4304195559
H        2.7875243367   -2.7918853470   -0.9728471663
H        3.8649290226   -1.8436554234    1.7376004451
H        4.8550092811   -2.2080140128    0.3343735110
H        3.0449020708   -4.2186596639    1.7754186274
H        4.0348051377   -4.5829187013    0.3725475563
H        5.1883523162   -5.3155356127    2.4747712660
H        6.1197418284   -4.0299865342    1.6919331258
H        5.1224633424   -3.6629399047    3.1052828825
