18   
torsion grid (-165,)
C        1.4926437419    0.9425997049    1.6237784865
C       -0.7243562930    0.3957890613    0.4869414557
C        0.6803009125   -0.9070480214   -0.9658769019
C        0.6810332012    1.0571116243    0.3247351363
C       -0.7852272280   -0.6426193172   -0.6314091842
N        1.3513245345    0.3988049011   -0.8211237504
N        2.7239095591    0.3698413225    1.4842836684
O        1.0349265455    1.3394511999    2.6928738488
F       -1.3964048724   -0.0631968937   -1.7730572003
H       -0.8234025507   -0.0732278849    1.4686493427
H       -1.5392004216    1.1138099746    0.3816413788
H        1.0995910395   -1.6131562061   -0.2390582392
H        0.8176140103   -1.3165323215   -1.9689542968
H        0.5913220997    2.1290680076    0.1303854007
H       -1.3659962224   -1.5356839667   -0.3874077220
H        1.1663403334    0.9427495902   -1.6609665435
H        3.3550728480    0.4269256405    2.2739172644
H        3.0969961619    0.2928294316    0.5437141912
18   
torsion grid (-150,)
C        1.5317717266    0.9946794657    1.6106794596
C       -0.6707882780    0.3637591087    0.5117891207
C        0.6896226218   -0.8491578514   -1.0464451364
C        0.7076819950    1.0784584954    0.3224993319
C       -0.7670162083   -0.5860556326   -0.6777314978
N        1.3811437738    0.4363845726   -0.8319427522
N        2.6463588626    0.1931650415    1.5353286791
O        1.1835814743    1.5908056277    2.6252775395
F       -1.3819254745    0.0881989444   -1.7625934845
H       -0.6976023386   -0.1973755039    1.4497207513
H       -1.5071555678    1.0640203831    0.5212893873
H        1.1048840485   -1.6064599614   -0.3709648173
H        0.8085726375   -1.1969068873   -2.0749588880
H        0.5680359478    2.1437464537    0.1262580384
H       -1.3606728920   -1.4845069029   -0.4904917865
H        1.2343992957    1.0165665172   -1.6540497923
H        3.2703769318    0.2715256134    2.3315936401
H        3.0856251685    0.1514509718    0.6199035213
18   
torsion grid (-135,)
C        1.5014941035    1.0774206745    1.5605663503
C       -0.6690916102    0.3191951758    0.4970307107
C        0.6781196475   -0.8289805774   -1.1114975732
C        0.6700378115    1.0974006045    0.2791921025
C       -0.7765290750   -0.5826714448   -0.7266212393
N        1.3687011622    0.4508942076   -0.8599761955
N        2.4937271316    0.1076344520    1.5877931390
O        1.2793929880    1.8512088626    2.4842647300
F       -1.4009846549    0.1331117904   -1.7778656000
H       -0.6246718301   -0.2941528220    1.4018241896
H       -1.5300976733    0.9832941293    0.5833378884
H        1.0967243879   -1.6084889256   -0.4642486606
H        0.7915257547   -1.1420560380   -2.1518207457
H        0.4743418760    2.1476145839    0.0551133115
H       -1.3676672032   -1.4884365301   -0.5682069313
H        1.2562925252    1.0410428211   -1.6797349757
H        3.0794032075    0.2068197543    2.4133896976
H        3.0338736894    0.0704999730    0.7263195245
18   
torsion grid (-120,)
C        1.6529797972    1.1080719735    1.5867335160
C       -0.5636945930    0.3312833944    0.6379492993
C        0.7037569396   -0.7710427915   -1.0650738465
C        0.7480917854    1.1342595778    0.3595671175
C       -0.7294447777   -0.5470265068   -0.5966975427
N        1.4007920045    0.5055208738   -0.8172001091
N        2.5382639195    0.0221343506    1.6222349817
O        1.6023612795    1.9693375972    2.4539671841
F       -1.4196202190    0.1835268609   -1.5950250503
H       -0.4580996357   -0.3022961852    1.5236255541
H       -1.4274750137    0.9809594765    0.7864122227
H        1.1601977169   -1.5649850593   -0.4629138231
H        0.7613812548   -1.0553472983   -2.1182725577
H        0.5264224792    2.1831100449    0.1552612589
H       -1.3016348007   -1.4623221634   -0.4240395706
H        1.2596708519    1.1117699799   -1.6203076330
H        3.0996547876    0.0892671523    2.4706151195
H        3.1555540352    0.0224833674    0.8121268175
18   
torsion grid (-105,)
C        1.6732696221    1.0739207270    1.5900308650
C       -0.5386302173    0.2383764583    0.6744209556
C        0.7263665009   -0.8075355532   -1.0630510214
C        0.7424658850    1.0836304554    0.3850720230
C       -0.7053385471   -0.6166230327   -0.5761134532
N        1.4045019413    0.4758119648   -0.7981887807
N        2.4835289617   -0.0856517107    1.6749531141
O        1.7303108040    1.9974348595    2.3867788554
F       -1.4184365117    0.1241376799   -1.5505696222
H       -0.3899022711   -0.4158137738    1.5387552420
H       -1.4171249707    0.8583185181    0.8599528504
H        1.2022316876   -1.6044348445   -0.4808312540
H        0.7767603722   -1.0697600611   -2.1224183961
H        0.4879021471    2.1259156475    0.1858133252
H       -1.2615181988   -1.5440108427   -0.4160662425
H        1.2568258679    1.0910766499   -1.5930599497
H        2.9557082035   -0.0514973124    2.5801750878
H        3.2181694468   -0.0498260692    0.9688874283
18   
torsion grid (-90,)
C        1.6914579544    1.1056501762    1.5468571891
C       -0.5385925514    0.2440985515    0.6800055428
C        0.7297781513   -0.7718315767   -1.0745995121
C        0.7205474890    1.1154404867    0.3764240801
C       -0.6991149004   -0.6180737197   -0.5673033218
N        1.3763704274    0.5299673285   -0.8221169345
N        2.4221343344   -0.1226018955    1.6698724692
O        1.8656286226    2.0673591162    2.2747553054
F       -1.4463117829    0.1026835648   -1.5320302151
H       -0.3684087404   -0.4044063961    1.5444920700
H       -1.4292185303    0.8457915580    0.8687537798
H        1.2355616955   -1.5519149896   -0.4958919468
H        0.7724408492   -1.0346495265   -2.1342073432
H        0.4486168614    2.1560085542    0.1918652898
H       -1.2286604263   -1.5593200277   -0.3985098579
H        1.1916868676    1.1430709119   -1.6110812696
H        2.7912525645   -0.1238087488    2.6244661360
H        3.2580050818   -0.0549379720    1.0868900352
18   
torsion grid (-75,)
C        1.5889541621    0.8210526608    1.7787292831
C       -0.6749881114    0.5389705086    0.5858843371
C        0.6602664967   -0.8707008568   -0.8355366732
C        0.7865156382    1.0622239750    0.4773709855
C       -0.7889809050   -0.5038793843   -0.5258449712
N        1.4153490238    0.3880007262   -0.6820346398
N        2.9321063947    0.4417446741    1.6087899309
O        1.0261791012    0.8243412145    2.8621153906
F       -1.3394202149    0.1060920344   -1.6831132021
H       -0.8492697790    0.1002005412    1.5705922314
H       -1.4162259202    1.3260403589    0.4359685087
H        1.0207498979   -1.6001293206   -0.0999951492
H        0.7870306803   -1.2919196910   -1.8348790069
H        0.8161064902    2.1460837624    0.3219410448
H       -1.4335592972   -1.3530856359   -0.2865275066
H        1.2587209604    0.9525376259   -1.5142904831
H        3.0924252460    0.3296353153    0.6031369840
H        3.5917197060    1.1480881564    1.9300031531
18   
torsion grid (-60,)
C        1.5579082578    0.9140392647    1.7471099906
C       -0.6921048875    0.5188446922    0.5746768805
C        0.6660627451   -0.8754696337   -0.8388867176
C        0.7525767321    1.0867232082    0.4404574924
C       -0.7890964918   -0.5354180671   -0.5269819095
N        1.3952828069    0.4004397349   -0.7040415541
N        2.8547540956    0.4288674376    1.5941290227
O        1.0149705031    1.0700542342    2.8327281112
F       -1.3566043117    0.0526019331   -1.6872074296
H       -0.8398592664    0.0805483126    1.5639821774
H       -1.4594408364    1.2817812179    0.4326373014
H        1.0446832969   -1.5890884904   -0.0970995192
H        0.7964710330   -1.3051324536   -1.8342295251
H        0.7412921083    2.1653416003    0.2540051743
H       -1.4153063869   -1.3952526071   -0.2767067340
H        1.2330651833    0.9468095536   -1.5470992057
H        3.0664050936    0.3461926286    0.5970242392
H        3.5645313481    1.0003968174    2.0449918814
18   
torsion grid (-45,)
C        1.5695450101    0.9517662733    1.7196524224
C       -0.6794303607    0.4909423921    0.5838833705
C        0.6867955341   -0.8774920641   -0.8478441481
C        0.7500111461    1.0937790104    0.4222430214
C       -0.7701759368   -0.5686637373   -0.5132531345
N        1.3915590334    0.4131617394   -0.7256405745
N        2.8271314268    0.3975032023    1.5666704099
O        1.0666127256    1.2151124248    2.8057701610
F       -1.3703002961    0.0027617665   -1.6651301027
H       -0.8026880770    0.0519901497    1.5763322617
H       -1.4660881606    1.2357388811    0.4521716791
H        1.0915870809   -1.5820990893   -0.1113856576
H        0.8101500251   -1.3058239422   -1.8447092738
H        0.7065110348    2.1698230406    0.2291350680
H       -1.3724181892   -1.4416902134   -0.2499769648
H        1.2108816005    0.9529943013   -1.5690734592
H        3.0907637679    0.3359115023    0.5830174684
H        3.5491303092    0.8182440967    2.1431788830
18   
torsion grid (-30,)
C        1.5747305046    0.9659644339    1.7101521474
C       -0.6741077365    0.4785042477    0.5955197499
C        0.7012628139   -0.8732413677   -0.8440244421
C        0.7459270832    1.1013650503    0.4209063548
C       -0.7574258179   -0.5868833097   -0.4968738644
N        1.3869239831    0.4286387855   -0.7323206794
N        2.8176568650    0.4062313966    1.5460623098
O        1.1013567297    1.2774814000    2.7987404960
F       -1.3776105576   -0.0296493067   -1.6451507010
H       -0.7859041449    0.0420473516    1.5904920668
H       -1.4716118106    1.2119232628    0.4652908041
H        1.1236306519   -1.5684394325   -0.1086129684
H        0.8221084274   -1.3033493263   -1.8404787288
H        0.6861533960    2.1765249994    0.2294007116
H       -1.3430708393   -1.4684939433   -0.2248812668
H        1.1852485406    0.9636956821   -1.5742162794
H        3.1286448397    0.3495036590    0.5791328462
H        3.5153579914    0.6662956282    2.2340328850
18   
torsion grid (-15,)
C        1.5628392503    0.9809568991    1.6962736466
C       -0.6812778911    0.4730527198    0.5856838567
C        0.6954831678   -0.8733778567   -0.8563111917
C        0.7341717785    1.1046342989    0.4066914564
C       -0.7634887897   -0.5901986681   -0.5084213256
N        1.3802002641    0.4284580541   -0.7427012631
N        2.8160619403    0.4715997501    1.5239828071
O        1.0933625456    1.3045379177    2.7849785236
F       -1.3857286370   -0.0325343182   -1.6552039415
H       -0.7870896129    0.0339716466    1.5801898298
H       -1.4831509247    1.2025898797    0.4605311933
H        1.1178633670   -1.5697784327   -0.1217575500
H        0.8172673364   -1.3023773181   -1.8531763201
H        0.6655999452    2.1776875411    0.2078850721
H       -1.3468446561   -1.4736925849   -0.2374050760
H        1.1844690008    0.9625471704   -1.5865312598
H        3.1467299483    0.3612672736    0.5707974882
H        3.4761428834    0.5636160277    2.2856054196
18   
torsion grid (0,)
C        1.5911756199    0.9486844880    1.7224572885
C       -0.6606879486    0.4603732465    0.6145555590
C        0.7121780435   -0.8986566722   -0.8190679759
C        0.7571614421    1.0823713432    0.4358242630
C       -0.7465405483   -0.6088449447   -0.4736526660
N        1.4005916709    0.4018733738   -0.7137476091
N        2.8861044667    0.5890544970    1.5178335343
O        1.1056882621    1.1833548693    2.8277136595
F       -1.3658202435   -0.0568313537   -1.6241329784
H       -0.7690699378    0.0283280411    1.6118161131
H       -1.4588830071    1.1929631607    0.4835140785
H        1.1313228108   -1.5914832528   -0.0789470161
H        0.8340073194   -1.3351806678   -1.8126737280
H        0.6979588219    2.1560134903    0.2362246828
H       -1.3324331495   -1.4890433015   -0.1974019186
H        1.2009104032    0.9325310217   -1.5589592911
H        3.1911497353    0.3829028261    0.5732446264
H        3.5069671543    0.5031704845    2.3112825810
18   
torsion grid (15,)
C        1.5650902440    0.9510205671    1.7394190929
C       -0.6905285427    0.5163409935    0.6098050290
C        0.6794746440   -0.8637912079   -0.8057664475
C        0.7382880407    1.1135395026    0.4492486905
C       -0.7790209965   -0.5549967845   -0.4761749606
N        1.3825481296    0.4285511638   -0.6981135958
N        2.8965762692    0.7412872987    1.5258258755
O        1.0585176028    1.0829796144    2.8510858741
F       -1.3780915644    0.0023893123   -1.6355171335
H       -0.8180944319    0.0910041653    1.6076353229
H       -1.4750261250    1.2610226057    0.4645357643
H        1.0824222334   -1.5589172015   -0.0584442191
H        0.8065990566   -1.3064219901   -1.7959612871
H        0.7042888859    2.1894670772    0.2554068194
H       -1.3798974045   -1.4266456632   -0.2053286158
H        1.1907554646    0.9611732762   -1.5440832038
H        3.1703989880    0.4596133726    0.5895925387
H        3.4607994633    0.4621396826    2.3184584986
18   
torsion grid (30,)
C        1.5753623990    0.9657226420    1.7293527919
C       -0.6804166511    0.5067360929    0.6074340341
C        0.6850426625   -0.8787084818   -0.8069585110
C        0.7460352312    1.1070342356    0.4374474618
C       -0.7724964092   -0.5665907918   -0.4760053392
N        1.3908318256    0.4119453611   -0.7027942657
N        2.9246414573    0.8153188747    1.5188218890
O        1.0662872220    1.1125764025    2.8362474833
F       -1.3727058171   -0.0111985328   -1.6351696912
H       -0.8016695741    0.0820271836    1.6063227886
H       -1.4673882118    1.2494741002    0.4661678255
H        1.0870712681   -1.5744579029   -0.0594565549
H        0.8098222679   -1.3233781984   -1.7965186823
H        0.7067467310    2.1804050708    0.2303243222
H       -1.3737848362   -1.4368860790   -0.2015785539
H        1.2088741212    0.9405715627   -1.5531993325
H        3.1593366938    0.5029173279    0.5787775661
H        3.4373919934    0.3697803750    2.2716370401
18   
torsion grid (45,)
C        1.5546773465    1.0431820363    1.7209924438
C       -0.6934205574    0.5639758692    0.5914099644
C        0.6807272081   -0.8314627361   -0.8051707267
C        0.7333475199    1.1657725038    0.4204697910
C       -0.7788367434   -0.5197469277   -0.4823695440
N        1.3820861440    0.4621623504   -0.7107770049
N        2.9147410187    0.8776627400    1.5287689240
O        1.0390919551    1.2634011950    2.8104872044
F       -1.3757671086    0.0233353036   -1.6486874092
H       -0.8196625995    0.1479110533    1.5933219504
H       -1.4812276831    1.3037430628    0.4400498402
H        1.0819347148   -1.5189285415   -0.0494611509
H        0.8104090027   -1.2855652934   -1.7897613338
H        0.6913343430    2.2370564785    0.2033714946
H       -1.3792250150   -1.3887313056   -0.2018128196
H        1.2019316389    0.9824041303   -1.5667408160
H        3.1166062269    0.5886415091    0.5708458773
H        3.3666056062    0.2738246371    2.2086447418
18   
torsion grid (60,)
C        1.5039829736    1.0734729691    1.6436002193
C       -0.7244853116    0.5778976798    0.4834139398
C        0.6619953022   -0.8173877283   -0.8998169585
C        0.7049938257    1.1812006913    0.3267433401
C       -0.8005445526   -0.4991962165   -0.5973712963
N        1.3670686175    0.4728081254   -0.7921137385
N        2.8717788031    0.8476832378    1.4918049734
O        0.9793760204    1.3862767689    2.7035229471
F       -1.3765598837    0.0537006798   -1.7690488858
H       -0.8601422937    0.1530813207    1.4805169108
H       -1.5111408246    1.3187819038    0.3324252624
H        1.0487500834   -1.5090984065   -0.1402910416
H        0.8038520558   -1.2698458426   -1.8834483679
H        0.6611415189    2.2508309283    0.1021745319
H       -1.4101780830   -1.3659638389   -0.3299820385
H        1.2070375365    0.9940225935   -1.6513451352
H        3.0598210656    0.6107584780    0.5144614861
H        3.2293071338    0.0948641328    2.0748156361
18   
torsion grid (75,)
C        1.4403683106    1.0702511443    1.6217607701
C       -0.7530911985    0.5281677125    0.4188158448
C        0.6763412440   -0.8330322694   -0.9530076712
C        0.6686933422    1.1598448357    0.2866668510
C       -0.7957182664   -0.5361909775   -0.6759604022
N        1.3615888963    0.4652387659   -0.8207083148
N        2.8125717317    0.7715847475    1.5256845824
O        0.9079340968    1.4636412043    2.6475599565
F       -1.3551322942    0.0241657185   -1.8514808875
H       -0.8942736299    0.0847505208    1.4072290210
H       -1.5510469957    1.2571515121    0.2700902790
H        1.0572333432   -1.5273509533   -0.1927544148
H        0.8427962711   -1.2748084440   -1.9376104368
H        0.6048365585    2.2280417759    0.0607441887
H       -1.4001794173   -1.4129965930   -0.4301984878
H        1.2148473946    0.9899978040   -1.6800645959
H        3.0168447382    0.6254419378    0.5320093253
H        3.0547831241   -0.1109775083    1.9741286125
18   
torsion grid (90,)
C        1.5167039275    0.8839241979    1.3329271074
C       -0.7808938536    0.5812095642    0.2030786279
C        0.4658499512   -1.0806861699   -0.9910032649
C        0.6959088025    1.0227011909    0.0468631184
C       -0.9528813988   -0.5505230191   -0.8069750156
N        1.3388866799    0.1061551030   -0.9396667919
N        2.8564522325    1.3588125263    1.1831555243
O        1.1112591205    0.3222734968    2.3371537594
F       -1.3866941208   -0.0097819624   -2.0449685435
H       -0.9579551341    0.2153447135    1.2176071728
H       -1.4857117798    1.3890114780   -0.0030746025
H        0.7108927611   -1.7555090569   -0.1621364893
H        0.5967438397   -1.6232790694   -1.9299289708
H        0.7979513286    2.0527114575   -0.3010098345
H       -1.6899938720   -1.3051769378   -0.5216416267
H        1.3267629866    0.5551390312   -1.8519724227
H        3.2222944449    1.4474032431    2.1349374324
H        3.4161119283    0.6075964723    0.7764609632
18   
torsion grid (105,)
C        1.4740790249    0.9070048033    1.3666242538
C       -0.7982478644    0.5776026647    0.1981841839
C        0.4908982510   -1.0627420914   -0.9850643539
C        0.6756343935    1.0366124861    0.0615316075
C       -0.9404251308   -0.5654432830   -0.8043118559
N        1.3348378046    0.1458710174   -0.9369553557
N        2.8286003851    1.2774823104    1.2140050600
O        1.0154391189    0.4442472301    2.4005960846
F       -1.3854081555   -0.0449296927   -2.0473182854
H       -0.9878662900    0.2245247185    1.2148409519
H       -1.5094696378    1.3739088749   -0.0294193179
H        0.7521707746   -1.7276292703   -0.1530250211
H        0.6353787008   -1.6059258139   -1.9215839276
H        0.7660090067    2.0733687046   -0.2711961068
H       -1.6591699690   -1.3360035185   -0.5148774538
H        1.2920521956    0.5983266062   -1.8470848796
H        3.2528550963    1.2363683655    2.1423481601
H        3.3121098985    0.5800159316    0.6485036906
18   
torsion grid (120,)
C        1.4711691550    0.9389205869    1.3631842249
C       -0.7873794439    0.5701886283    0.1865783070
C        0.5291470176   -1.0486962859   -0.9975045314
C        0.6808749991    1.0489313854    0.0479646510
C       -0.9114638812   -0.5814782224   -0.8085305819
N        1.3446629818    0.1802265824   -0.9646649847
N        2.8369760905    1.1814256004    1.1959643208
O        0.9680538298    0.6176079163    2.4316253678
F       -1.3747872665   -0.0778655180   -2.0520849886
H       -0.9738806545    0.2272101894    1.2071780169
H       -1.5098958274    1.3540534395   -0.0483234957
H        0.8126719669   -1.6988769679   -0.1608255960
H        0.6791365230   -1.5976478821   -1.9296840335
H        0.7520378129    2.0908471898   -0.2755183782
H       -1.6119314423   -1.3656143263   -0.5110302409
H        1.2670650261    0.6315501623   -1.8734034072
H        3.3087051496    1.0647993442    2.0916522247
H        3.2470418094    0.5497236627    0.5106258592
18   
torsion grid (135,)
C        1.4175949779    0.9657657270    1.4214180577
C       -0.8102217564    0.5613643755    0.2053579511
C        0.5522311884   -1.0260800163   -0.9754748533
C        0.6538213990    1.0626629055    0.0868815021
C       -0.9005708340   -0.5971363097   -0.7863082670
N        1.3357734598    0.2230750351   -0.9345264170
N        2.7903365422    1.0544408673    1.2694387234
O        0.8623730101    0.8174835233    2.5041470773
F       -1.3781492571   -0.1117122933   -2.0315785292
H       -1.0119107628    0.2286332334    1.2261974580
H       -1.5400371988    1.3319178151   -0.0498423582
H        0.8517965162   -1.6723489173   -0.1410186232
H        0.7170780924   -1.5673592760   -1.9095844113
H        0.7071635096    2.1112611819   -0.2198715186
H       -1.5781506657   -1.4001356421   -0.4861376942
H        1.2446276495    0.6792406989   -1.8397152148
H        3.2766044475    0.8809001546    2.1451973997
H        3.1447734296    0.4914301076    0.4998212463
18   
torsion grid (150,)
C        1.4128525235    1.0110715567    1.4354973864
C       -0.8029992386    0.5648166112    0.2217602011
C        0.5848888611   -0.9999348777   -0.9648236930
C        0.6541491237    1.0889194223    0.0956508641
C       -0.8755224869   -0.6045581356   -0.7590408510
N        1.3391476483    0.2674162244   -0.9353302723
N        2.7767007728    0.9490526990    1.2907021984
O        0.8416491478    1.0379096647    2.5215901855
F       -1.3811848615   -0.1432511645   -2.0021085511
H       -1.0017219909    0.2432773922    1.2465547732
H       -1.5452034241    1.3203966896   -0.0420257243
H        0.9105612055   -1.6369491299   -0.1328922464
H        0.7499018837   -1.5393106223   -1.8999565231
H        0.6848752884    2.1402938920   -0.2051680212
H       -1.5284306290   -1.4216867654   -0.4426637554
H        1.2259013737    0.7207258962   -1.8395426624
H        3.2832399744    0.7528851704    2.1471400205
H        3.0960263945    0.4722512695    0.4517895875
18   
torsion grid (165,)
C        1.4069015657    1.0434914333    1.4346650857
C       -0.7999398205    0.5602495204    0.2285068247
C        0.6102634964   -0.9811969081   -0.9656080253
C        0.6508064467    1.1067850298    0.0931333171
C       -0.8560576603   -0.6170006454   -0.7446689692
N        1.3359908979    0.3028762313   -0.9484567462
N        2.7445047716    0.8110504532    1.3064460805
O        0.8424128014    1.2409925158    2.5082896582
F       -1.3861375500   -0.1743794952   -1.9844577652
H       -0.9957749558    0.2465015095    1.2560740247
H       -1.5534565922    1.3021109477   -0.0418568775
H        0.9597058834   -1.6055604583   -0.1336946518
H        0.7770017068   -1.5220493115   -1.8995465575
H        0.6586148744    2.1604934653   -0.2005548786
H       -1.4868322645   -1.4468576837   -0.4166712235
H        1.1980569251    0.7536724928   -1.8506185338
H        3.2799085527    0.6585016171    2.1515884588
H        3.0683310284    0.4338753113    0.4217457007
18   
torsion grid (180,)
C        1.3773123732    1.1462559982    1.3868958368
C       -0.8262642211    0.5937592824    0.2163087847
C        0.5721740702   -0.9270109518   -1.0135912184
C        0.6146021515    1.1647866228    0.0505865070
C       -0.8918870687   -0.5650134416   -0.7766341451
N        1.2965098193    0.3581325267   -0.9904504543
N        2.6605901980    0.7068293111    1.2970479786
O        0.8482475829    1.5264369749    2.4298888029
F       -1.4296518148   -0.0998544643   -2.0044284032
H       -0.9889156231    0.2507992774    1.2405959521
H       -1.5991869107    1.3298436974   -0.0108283599
H        0.9299236116   -1.5609046587   -0.1929444796
H        0.7298108449   -1.4557310394   -1.9560880513
H        0.5936511666    2.2134607623   -0.2588908845
H       -1.5223899166   -1.3985848530   -0.4572869767
H        1.1604598852    0.8103929909   -1.8919851382
H        3.2428563084    0.7085769491    2.1236972124
H        3.0129624990    0.4122451482    0.3932610217
