20   
torsion grid (-165,)
C        4.9767009272    1.9025528508    0.8705541090
C        5.0432941982    0.5423201068    1.1276650732
C        3.8327421662    2.1068910427    0.0553733378
C        3.2001322621    0.8821969052   -0.1470188137
C        2.0815985799    0.5078689346   -1.0347717116
C        0.5435957316   -1.1960776491   -1.7918831534
C        1.0519098456   -1.0602350433    0.5987552940
N        3.9686209292   -0.0584579748    0.5285248431
N        1.4734273643   -0.7237360618   -0.7659909412
O        1.7876427804    1.1798127903   -2.0209200667
Cl       3.3000193319    3.6475817909   -0.5236097540
H        5.6597274764    2.6635518897    1.2221862537
H        5.7729517383   -0.0314014652    1.6826117159
H        0.9789237143   -1.0436364724   -2.7792599555
H       -0.4147892046   -0.6606634224   -1.7535859906
H        0.3618890702   -2.2631817385   -1.6326819267
H        1.1460903989   -2.1384026031    0.7710146481
H        1.6536005605   -0.5309831570    1.3365732275
H        0.0009467202   -0.7794504401    0.7573989116
H        3.8408658156   -1.0553462773    0.4188676456
20   
torsion grid (-150,)
C        4.8972664886    1.9113488966    0.9731317258
C        5.0517081133    0.5447390495    1.1408159662
C        3.7817890234    2.0927267603    0.1121428133
C        3.2613762163    0.8451915775   -0.2143044828
C        2.1579094294    0.4583047150   -1.1206190409
C        0.5020428823   -1.1835399889   -1.7652550328
C        1.0848038151   -0.9808082270    0.6103490824
N        4.0551423171   -0.0854009706    0.4412575358
N        1.4649120309   -0.7004367236   -0.7767279897
O        1.9318265064    1.0742239982   -2.1603576410
Cl       3.1509336939    3.6258706572   -0.3862340104
H        5.5050362322    2.6910074963    1.4113591825
H        5.7967114988   -0.0153124593    1.6891106763
H        0.9255946652   -1.0893178876   -2.7648146851
H       -0.4345218560   -0.6104884867   -1.7342449664
H        0.2822383036   -2.2348401562   -1.5564172058
H        1.1506611256   -2.0556715701    0.8138729062
H        1.7315670919   -0.4498736988    1.3072014758
H        0.0500345010   -0.6602941463    0.7956648872
H        3.9828878902   -1.0821491025    0.2881314406
20   
torsion grid (-135,)
C        4.8401049215    1.8832713515    1.0437470461
C        5.0846554831    0.5238376008    1.1401822083
C        3.7442929791    2.0374112839    0.1503476040
C        3.3332021556    0.7812095645   -0.2725610604
C        2.2514168280    0.3697419927   -1.2028951510
C        0.4671233247   -1.1820864991   -1.7340254522
C        1.1174113894   -0.9044297104    0.6234993010
N        4.1609872836   -0.1307068958    0.3630987640
N        1.4585747306   -0.6867731621   -0.7822211224
O        2.1165047638    0.8980814422   -2.3052403286
Cl       3.0125201739    3.5461155897   -0.2868182614
H        5.3753377917    2.6756751391    1.5486206208
H        5.8475251729   -0.0157702343    1.6841828407
H        0.8803027167   -1.1482460788   -2.7415704603
H       -0.4470033023   -0.5734417930   -1.7166311502
H        0.2105549195   -2.2135603974   -1.4739059723
H        1.1507522322   -1.9732819202    0.8640823664
H        1.8077022070   -0.3745623686    1.2777568914
H        0.1022347047   -0.5385775300    0.8296961828
H        4.1483377168   -1.1236591556    0.1737584798
20   
torsion grid (-120,)
C        4.7421333918    1.8638532427    1.0598006605
C        5.0953307030    0.5266703008    1.0922501605
C        3.6425349846    1.9722142514    0.1616879817
C        3.3426677492    0.7127901578   -0.3299152417
C        2.2823464892    0.2571904875   -1.2755262028
C        0.3797057260   -1.1940956850   -1.6949852190
C        1.1021234181   -0.8415174066    0.6390020613
N        4.2335589943   -0.1606616800    0.2690383537
N        1.3927029192   -0.6735376123   -0.7819746325
O        2.2419468124    0.6645948419   -2.4357739093
Cl       2.7825780445    3.4316011121   -0.2130221943
H        5.2092355461    2.6713584764    1.6066526524
H        5.8951767747    0.0228220184    1.6168798096
H        0.7752926896   -1.1983119500   -2.7099054540
H       -0.5267653809   -0.5743921673   -1.6789412310
H        0.1152600715   -2.2128659817   -1.3945777815
H        1.1260941285   -1.9029033880    0.9130413286
H        1.8265276431   -0.3035210873    1.2481579821
H        0.1022777690   -0.4505275883    0.8693725721
H        4.2986916169   -1.1431586501    0.0407668852
20   
torsion grid (-105,)
C        4.6917586013    1.8615882379    1.1392197014
C        5.1809756026    0.5704362090    1.0717549172
C        3.5576471608    1.9104630141    0.2774501484
C        3.3720944902    0.6624617687   -0.2861914780
C        2.3682924776    0.1701775742   -1.2850079669
C        0.3523201317   -1.1348597254   -1.7037885560
C        1.0349109247   -0.7204061259    0.6343347243
N        4.3682699866   -0.1485451375    0.2218571011
N        1.3551179053   -0.6096535962   -0.7839883729
O        2.4924834168    0.4248926124   -2.4829591452
Cl       2.5299639957    3.2866096028    0.0161136825
H        5.0895414274    2.6760108219    1.7289550643
H        6.0396640865    0.1165080827    1.5463183946
H        0.7410225336   -1.0876994746   -2.7198721602
H       -0.5726102695   -0.5458662337   -1.6507007233
H        0.1210271323   -2.1729018028   -1.4411753828
H        0.9372396815   -1.7746699785    0.9192733114
H        1.8137366847   -0.2614981538    1.2412245649
H        0.0846372426   -0.2156661831    0.8512443136
H        4.5339815396   -1.0985648972   -0.0807722673
20   
torsion grid (-90,)
C        4.7324515847    1.8225816675    1.1347581820
C        5.4285561491    0.6501547241    0.9000221958
C        3.4876788123    1.6889523382    0.4587499855
C        3.4267922485    0.4408170683   -0.1374829346
C        2.5349137110   -0.0998753092   -1.2170444710
C        0.4355033346   -1.1769269382   -1.8286372070
C        0.8474519709   -0.6199310799    0.5441424061
N        4.6362673050   -0.1702037020    0.1314996613
N        1.3651169407   -0.6874634297   -0.8169173050
O        2.9227070014   -0.0906100461   -2.3880182709
Cl       2.2105448015    2.8698302511    0.4111703048
H        5.0646824888    2.6700770939    1.7183062897
H        6.4054622924    0.3333547569    1.2377270106
H        0.9412162126   -1.2014923758   -2.7925194152
H       -0.4420549216   -0.5211884942   -1.8978625617
H        0.0973923690   -2.1846750777   -1.5631668188
H        0.4609015240   -1.6024170371    0.8373167077
H        1.6378455112   -0.3324242496    1.2362324105
H        0.0332848158    0.1118533755    0.6194609965
H        4.9330847524   -1.0350159350   -0.2998645405
20   
torsion grid (-75,)
C        4.7224046067    1.8294976806    1.1923054698
C        5.5102891205    0.7355575331    0.8751611517
C        3.4632379507    1.6037049062    0.5733481600
C        3.4842319177    0.3722309080   -0.0688236461
C        2.6404551584   -0.2204584573   -1.1511154975
C        0.4969329308   -1.1359764385   -1.8644987627
C        0.8005761286   -0.5347629937    0.5128807032
N        4.7608091634   -0.1255649457    0.1152894357
N        1.3832229477   -0.6414372519   -0.8178663286
O        3.1379494662   -0.3955814001   -2.2701606498
Cl       2.1052400840    2.6904339043    0.6162737439
H        5.0048736058    2.6839676000    1.7916752542
H        6.5284608213    0.5013270758    1.1535053669
H        1.0239948220   -1.1105772108   -2.8167719403
H       -0.4031769779   -0.5119795740   -1.9248645272
H        0.1920915045   -2.1666028266   -1.6463293812
H        0.3311911600   -1.4890303753    0.7791529385
H        1.5709536566   -0.3086264061    1.2485502604
H        0.0377238710    0.2518687203    0.5501505875
H        5.1145778350   -0.9191609444   -0.4029043633
20   
torsion grid (-60,)
C        4.6662313226    1.8171749709    1.2118067213
C        5.4799022150    0.7548269486    0.8498860437
C        3.3923193143    1.5570660454    0.6407208375
C        3.4343677517    0.3340006269   -0.0233676494
C        2.5784632783   -0.3237419788   -1.0485629617
C        0.3945397089   -1.0985425848   -1.7832764461
C        0.6828458273   -0.4490517610    0.5826432069
N        4.7337098385   -0.1193565199    0.1077697296
N        1.2677639331   -0.5621202452   -0.7463629232
O        3.0976955006   -0.6843405280   -2.1149131985
Cl       2.0233555836    2.6256592947    0.7339315797
H        4.9434877596    2.6763411450    1.8068841065
H        6.5174602555    0.5575283935    1.0815330129
H        0.8800779099   -0.9913378993   -2.7519313844
H       -0.5552845526   -0.5525041453   -1.7808286360
H        0.1872542706   -2.1622544725   -1.6078091679
H        0.1982991801   -1.3977896937    0.8450457126
H        1.4527970316   -0.2390078760    1.3230228959
H       -0.0675469585    0.3482176790    0.6196423794
H        5.0834609195   -0.8984935830   -0.4357587602
20   
torsion grid (-45,)
C        4.6638024209    1.7864780631    1.1360467177
C        5.4902452027    0.7559190649    0.7132933880
C        3.3784747537    1.5179345301    0.5963276731
C        3.4328297959    0.3241321098   -0.1226910331
C        2.5540973270   -0.3889674428   -1.0828499670
C        0.3553191592   -1.0723944276   -1.8321972491
C        0.6396084108   -0.4078357879    0.5262165993
N        4.7431583943   -0.1060081605   -0.0387219330
N        1.2175454925   -0.4891744036   -0.8101839209
O        3.0661371588   -0.8820262375   -2.1001626037
Cl       2.0075046019    2.5751699324    0.7563233894
H        4.9413538840    2.6339426348    1.7475896084
H        6.5395487580    0.5777710576    0.9038531567
H        0.7958039609   -0.9105715155   -2.8149391902
H       -0.6284614545   -0.5949639278   -1.7834526092
H        0.2311154832   -2.1530536983   -1.6800342412
H        0.1751853402   -1.3700079278    0.7789771010
H        1.4085060300   -0.1947248356    1.2661517354
H       -0.1247642843    0.3740784265    0.5784679448
H        5.0823805755   -0.8722769283   -0.6077132309
20   
torsion grid (-30,)
C        4.6804210170    1.7281063417    1.0883017826
C        5.5132378360    0.7285125829    0.6053513549
C        3.3848928565    1.4558660613    0.5774263613
C        3.4430714352    0.2951185797   -0.1980802536
C        2.5478948654   -0.4752975568   -1.0923209576
C        0.3521221098   -1.0856157373   -1.8861102641
C        0.5996463589   -0.3900615176    0.4621226053
N        4.7616529098   -0.1154400139   -0.1585928967
N        1.1951460376   -0.4623583379   -0.8698091319
O        3.0556483317   -1.0850946670   -2.0473627208
Cl       2.0185580123    2.5065851227    0.8044987685
H        4.9612000955    2.5618058019    1.7170897612
H        6.5715245284    0.5661964642    0.7563133045
H        0.7792780450   -0.9123351990   -2.8731058693
H       -0.6460698056   -0.6408849696   -1.8331247290
H        0.2669101323   -2.1698249638   -1.7317163357
H        0.1329754279   -1.3545223653    0.7036171076
H        1.3576637093   -0.1825923902    1.2143446768
H       -0.1649390279    0.3912035138    0.5089870683
H        5.0848275974   -0.8817205352   -0.7377061426
20   
torsion grid (-15,)
C        4.7127441390    1.6858017255    1.0940502924
C        5.5534274526    0.7248413359    0.5488437553
C        3.4110964074    1.4105087148    0.6033117739
C        3.4749167109    0.2925794035   -0.2367566869
C        2.5759504804   -0.5409298014   -1.0677189743
C        0.4023463863   -1.1279317314   -1.9213042798
C        0.5817628162   -0.3766491411    0.4107147025
N        4.8015724871   -0.0959628778   -0.2361056299
N        1.2135650329   -0.4585279641   -0.9065578726
O        3.0901749036   -1.2389875928   -1.9571394097
Cl       2.0459973479    2.4465801662    0.8990767635
H        4.9926640481    2.5005046833    1.7476352955
H        6.6187069650    0.5804270128    0.6648974036
H        0.8388082236   -0.9669639912   -2.9065759594
H       -0.6052883181   -0.7033175263   -1.8926046079
H        0.3389368133   -2.2101196061   -1.7444401132
H        0.0998213515   -1.3362614035    0.6417108673
H        1.3197356298   -0.1762311033    1.1840722514
H       -0.1757082669    0.4121297669    0.4350862342
H        5.1131522736   -0.8615889619   -0.8232119843
20   
torsion grid (0,)
C        4.7355477300    1.6480566252    1.0997770367
C        5.5704167940    0.7305455238    0.4759820686
C        3.4207543863    1.3706650052    0.6499972919
C        3.4688984522    0.3024081884   -0.2580017521
C        2.5662439968   -0.5908225382   -1.0242612394
C        0.4171272984   -1.1717203709   -1.9347753241
C        0.5251596178   -0.3424415475    0.3711382817
N        4.8026119502   -0.0623785849   -0.3185831203
N        1.1991860490   -0.4609658932   -0.9240333178
O        3.0861668997   -1.3580294231   -1.8516680483
Cl       2.0648539110    2.3860483415    1.0483791061
H        5.0265648168    2.4391465626    1.7770935373
H        6.6423254339    0.6035317649    0.5402067226
H        0.8787083017   -1.0462917239   -2.9138652923
H       -0.5906232968   -0.7467538144   -1.9482070077
H        0.3492132504   -2.2467126398   -1.7202586413
H        0.0040798033   -1.2830502815    0.5943874590
H        1.2419784854   -0.1610500339    1.1682926555
H       -0.2054144157    0.4715707799    0.3633998091
H        5.0929852793   -0.8251122655   -0.9209644429
20   
torsion grid (15,)
C        4.6772266983    1.2040643334    1.4425470659
C        5.3910207302    1.1049386196    0.2558914259
C        3.4210661924    0.5874437980    1.2130839508
C        3.3878537814    0.1152574050   -0.1042605932
C        2.4651609321   -0.5944564067   -1.0198880890
C        0.3443437400   -1.6128553367   -1.5369843550
C        0.3638044191    0.4082990263   -0.1412626512
N        4.6095498626    0.4580182551   -0.6529286990
N        1.1307902061   -0.7012801164   -0.7086418213
O        2.9537317868   -1.1523206987   -2.0162770628
Cl       2.2417187236    0.3363949995    2.4662877838
H        5.0155846936    1.6439476907    2.3705925254
H        6.3881733417    1.4425813483    0.0092782094
H        0.9297043430   -2.5039335968   -1.7610460423
H        0.0470898271   -1.1469307135   -2.4862460898
H       -0.5555733361   -1.8943903196   -0.9824003021
H       -0.2251140917    0.0801580408    0.7201303205
H        1.0219509639    1.2154412756    0.1723978270
H       -0.3187333402    0.8039449521   -0.9053478069
H        4.8477399590    0.1741824417   -1.5966355276
20   
torsion grid (30,)
C        4.6743887769    1.1687812346    1.4525529820
C        5.3642574134    1.1439134191    0.2486308920
C        3.4283784527    0.5319831213    1.2171077792
C        3.3718008787    0.1384591342   -0.1223128558
C        2.4732396272   -0.6463128731   -1.0005983446
C        0.3239328210   -1.6115088867   -1.5214697471
C        0.3899461917    0.4480327721   -0.1742775590
N        4.5753919405    0.5276271094   -0.6780045310
N        1.1286593541   -0.6805331422   -0.7354067001
O        2.9793950383   -1.2844952863   -1.9377883776
Cl       2.2615010972    0.2049316259    2.4637286246
H        5.0196092345    1.5781023940    2.3919921613
H        6.3455408863    1.5218909234   -0.0030074174
H        0.8978700193   -2.5162022659   -1.7184673761
H        0.0254365807   -1.1749426329   -2.4842216652
H       -0.5759512229   -1.8625315573   -0.9521758539
H       -0.2143467129    0.1354450224    0.6825980143
H        1.0696713609    1.2347999858    0.1458375614
H       -0.2761989042    0.8630613014   -0.9424959946
H        4.8248517372    0.2530391626   -1.6211042453
20   
torsion grid (45,)
C        4.6469628329    1.2022616922    1.5441468691
C        5.3160994163    1.2366509357    0.3297110672
C        3.4138224498    0.5407459179    1.3048958664
C        3.3382956073    0.2046769217   -0.0465703190
C        2.4730335358   -0.6578930027   -0.8891149555
C        0.2999641099   -1.5628728493   -1.4565619831
C        0.3983465570    0.5281127912   -0.1516963823
N        4.5250583484    0.6353252054   -0.6079698598
N        1.1172614732   -0.6085959382   -0.7152987163
O        3.0109658955   -1.3901889809   -1.7344481606
Cl       2.2525485640    0.1547355560    2.5399437411
H        4.9957295104    1.5921093354    2.4905063781
H        6.2813941390    1.6515220007    0.0744149433
H        0.8846372720   -2.4578581242   -1.6642979462
H       -0.0399897986   -1.1397140592   -2.4114299358
H       -0.5768049225   -1.8237846144   -0.8554449318
H       -0.2088743824    0.2243204620    0.7070112390
H        1.0924208005    1.3028857939    0.1678526189
H       -0.2641082148    0.9531015492   -0.9171313341
H        4.7868753918    0.3719081262   -1.5503361114
20   
torsion grid (60,)
C        4.6453173355    1.2656332845    1.5957992797
C        5.2883774531    1.3640476858    0.3716998936
C        3.4288713403    0.5741621027    1.3533629197
C        3.3289429123    0.2959217652   -0.0072494255
C        2.5044537203   -0.6394512735   -0.8205883846
C        0.3271273748   -1.5025033611   -1.4717617483
C        0.4256779150    0.6004845076   -0.1793736187
N        4.4946865009    0.7756360842   -0.5746432184
N        1.1445967927   -0.5191597396   -0.7715921073
O        3.0801125373   -1.4537263204   -1.5570051791
Cl       2.2801745127    0.1222987223    2.5784984775
H        4.9980520153    1.6366309084    2.5482141396
H        6.2334429445    1.8209701999    0.1124949472
H        0.9438325690   -2.3609844496   -1.7329478880
H       -0.0936614263   -1.0767420136   -2.3920351779
H       -0.4979554820   -1.8202806983   -0.8247786889
H       -0.1631444064    0.2804792611    0.6872189021
H        1.1201548004    1.3767171144    0.1372814954
H       -0.2551329882    1.0272756650   -0.9264283712
H        4.7611422125    0.5416958855   -1.5228401352
20   
torsion grid (75,)
C        4.7049967393    1.2539712172    1.5940159418
C        5.3115219075    1.3988952962    0.3574119259
C        3.5153507486    0.5104574983    1.3671246113
C        3.3906397474    0.2516507004    0.0081303831
C        2.5975009424   -0.7537224392   -0.7630632151
C        0.4311131055   -1.5508611988   -1.5459664902
C        0.5335970765    0.5791932531   -0.2977591244
N        4.5193869698    0.7896188052   -0.5816851957
N        1.2520288539   -0.5440874807   -0.8841361887
O        3.1931629036   -1.6731516123   -1.3377585024
Cl       2.3870143595    0.0079524264    2.5924087523
H        5.0613229575    1.6311755407    2.5426457949
H        6.2249942371    1.9066979682    0.0804336828
H        1.0712398448   -2.3638787054   -1.8843528250
H       -0.0836597127   -1.1116430781   -2.4089950602
H       -0.3234492837   -1.9405625494   -0.8517223128
H       -0.0693187942    0.2600620330    0.5605928093
H        1.2318433043    1.3467549529    0.0325877632
H       -0.1340351878    1.0136757294   -1.0509803447
H        4.7838003407    0.5846148271   -1.5364238586
20   
torsion grid (90,)
C        4.7206929503    1.2031123750    1.5682715354
C        5.2126165743    1.4315130465    0.2954431359
C        3.5693871826    0.3824743263    1.4090519150
C        3.3558384609    0.1571028831    0.0597381882
C        2.5248522938   -0.8685969909   -0.6548618489
C        0.3583662694   -1.5161948920   -1.5651053825
C        0.5594450753    0.6408992621   -0.3749143888
N        4.3873005422    0.7950321362   -0.6018201646
N        1.2253293681   -0.5335806471   -0.9246558390
O        3.0540703431   -1.9080027843   -1.0563739850
Cl       2.5488953665   -0.2173873633    2.6844228598
H        5.1263239618    1.5761930837    2.4985556694
H        6.0629728936    2.0111656252   -0.0356904637
H        0.9697960856   -2.3298474694   -1.9518109455
H       -0.1910643783   -1.0441880037   -2.3871061134
H       -0.3668959332   -1.9194695330   -0.8465941154
H       -0.1084855735    0.3640760949    0.4504868708
H        1.2943089335    1.3535637287   -0.0028184159
H       -0.0360522804    1.1234385310   -1.1579788466
H        4.5720185575    0.6815271102   -1.5892772382
20   
torsion grid (105,)
C        4.6875812485    1.1950030936    1.6116687260
C        4.9343379726    1.5789011092    0.3067998967
C        3.7033785974    0.1659355509    1.5518719237
C        3.3650430686   -0.0507547023    0.2296591974
C        2.4252605713   -1.0346622190   -0.3999238692
C        0.2743965252   -1.4244780992   -1.4790335675
C        0.7140513292    0.7879682537   -0.4708974563
N        4.1200215089    0.8324488740   -0.5174724868
N        1.2294619828   -0.5246430582   -0.8421395338
O        2.7478996453   -2.2141493303   -0.5416969814
Cl       2.9901620587   -0.6478337240    2.9110450762
H        5.1493230916    1.5950870623    2.5038720265
H        5.6259035587    2.3061557317   -0.0950019728
H        0.7929890403   -2.3275761634   -1.7971653114
H       -0.1757698618   -0.9283823313   -2.3457728984
H       -0.5254249273   -1.7027572416   -0.7804131939
H       -0.1467870636    0.6833035123    0.2020350463
H        1.4792127602    1.3713437885    0.0386917560
H        0.3877550457    1.3331813411   -1.3644706058
H        4.1453536726    0.8413530955   -1.5278507498
20   
torsion grid (120,)
C        4.7475388507    1.1275386968    1.5819231474
C        4.8406560213    1.5941470509    0.2828968743
C        3.8123586253    0.0539882146    1.5622087616
C        3.3512959088   -0.1119104477    0.2669671191
C        2.3562739052   -1.0658037082   -0.3040300636
C        0.2889833871   -1.3950921978   -1.5370057270
C        0.7564270885    0.8374563283   -0.5931492002
N        3.9806314510    0.8556458634   -0.4966656433
N        1.2540345728   -0.4986256699   -0.9079122102
O        2.5419757911   -2.2815388596   -0.2681351646
Cl       3.2923203283   -0.8598959331    2.9420993827
H        5.2809554150    1.5014430471    2.4450332699
H        5.4591202263    2.3722075260   -0.1425177613
H        0.8047277424   -2.2812313331   -1.9048838880
H       -0.1953505964   -0.8742853067   -2.3690218424
H       -0.4820084366   -1.7142360572   -0.8230739261
H       -0.1753666917    0.7678492625   -0.0164762167
H        1.4827913431    1.3910436579   -0.0005203186
H        0.5485925692    1.3965031443   -1.5131964419
H        3.8922412224    0.9260048187   -1.5010988257
20   
torsion grid (135,)
C        4.8487318201    1.1243711884    1.5818620917
C        4.8237147924    1.6382498372    0.2963788686
C        3.9249229537    0.0433023260    1.6061869045
C        3.3472784226   -0.0783990954    0.3502405253
C        2.3376029910   -1.0340398159   -0.1716767816
C        0.3814663832   -1.4198313096   -1.5495639841
C        0.7616048756    0.8430910678   -0.6592858042
N        3.9034203719    0.9232158269   -0.4297318112
N        1.3158465822   -0.4833824811   -0.9296846977
O        2.4460925232   -2.2456982293    0.0089345192
Cl       3.5467383926   -0.9204217222    2.9957952503
H        5.4511780566    1.4749352630    2.4085654643
H        5.3971624164    2.4379145039   -0.1517032580
H        0.9204840136   -2.3064323217   -1.8818424526
H       -0.0925621469   -0.9321918272   -2.4068444921
H       -0.3990107952   -1.7360607098   -0.8444172422
H       -0.1865506308    0.7548295040   -0.1114173491
H        1.4474259603    1.4355195247   -0.0559683723
H        0.5656521982    1.3742884591   -1.5978298665
H        3.7323804272    1.0193561295   -1.4214305576
20   
torsion grid (150,)
C        4.9541893676    1.8178050547    0.4643871030
C        4.3663994433    1.2248754970    1.5700602167
C        4.0582657120    1.6312694293   -0.6224084294
C        2.9545360314    0.9143080198   -0.1739440612
C        1.7070363452    0.5169584344   -0.8631801089
C       -0.2011547918   -0.9671542341   -0.9735423254
C        1.9252833698   -1.8573414606   -0.1309647065
N        3.1774239025    0.6691935225    1.1737184920
N        1.1207567999   -0.6686043900   -0.4251821119
O        1.1776422133    1.2399009553   -1.7049276451
Cl       4.3411641972    2.1632383646   -2.2453281166
H        5.9090997611    2.3241076366    0.4314000922
H        4.7005607918    1.1691516826    2.5969579535
H       -0.7937467025   -0.0537680444   -1.0166300403
H       -0.6948631575   -1.6959664454   -0.3236399833
H       -0.1356046102   -1.3817707475   -1.9886338096
H        2.9552198651   -1.5854810545    0.0951389135
H        1.5060071471   -2.4001748584    0.7238886405
H        1.9349196385   -2.5359972045   -0.9953236111
H        2.4802421593    0.2697784216    1.7873714914
20   
torsion grid (165,)
C        4.9061332488    1.9179336818    0.4918445795
C        4.3647790681    1.2161347908    1.5572276648
C        4.0471310380    1.7010258448   -0.6173063139
C        3.0169977264    0.8483372816   -0.2269748860
C        1.7863998341    0.4373680627   -0.9317977391
C       -0.2119288016   -0.9232911965   -0.9499217351
C        1.8624220825   -1.9049234246   -0.0943681513
N        3.2437533097    0.5659003203    1.1148981508
N        1.1225721122   -0.6759538225   -0.4044080109
O        1.3132445053    1.1069716636   -1.8473151589
Cl       4.2998014018    2.3514265415   -2.2003570493
H        5.8079843119    2.5145040060    0.4993522375
H        4.6926291940    1.1390871482    2.5848911888
H       -0.7556020857    0.0177860483   -1.0291285881
H       -0.7452461540   -1.5986930452   -0.2741782403
H       -0.1674470502   -1.3788457653   -1.9485137315
H        2.9146775981   -1.6924480291    0.0902310490
H        1.4382938380   -2.3942874718    0.7900126702
H        1.8037838405   -2.6100342248   -0.9354330493
H        2.5625525122    0.1060941130    1.7036688410
20   
torsion grid (180,)
C        5.0532900504    1.9122220170    0.7792228492
C        5.0420470580    0.5732327181    1.1357212263
C        3.8831367483    2.1368302840    0.0095263488
C        3.1506027708    0.9506583924   -0.0595267635
C        2.0157649376    0.5808205348   -0.9267930753
C        0.5985390896   -1.1670614816   -1.8058244900
C        1.0510070108   -1.1265391083    0.5944756595
N        3.8982683052    0.0083113164    0.6415636810
N        1.4955556409   -0.7111605577   -0.7429329035
O        1.6518877496    1.3008455992   -1.8534126863
Cl       3.4389384974    3.6663698726   -0.6633623831
H        5.8033118543    2.6472075674    1.0370966636
H        5.7586447909   -0.0076356503    1.7003751999
H        1.0393598417   -0.9461304116   -2.7778245026
H       -0.3832400883   -0.6769977457   -1.7550842126
H        0.4635233600   -2.2480641497   -1.7042581948
H        1.2107523386   -2.2019964858    0.7334381431
H        1.5873227218   -0.5848455661    1.3732405522
H       -0.0210868981   -0.9214617751    0.7258999174
H        3.7234405982   -0.9853850424    0.5823369455
