27   
torsion grid (-165,)
C        2.1660644919   -5.1149244297    5.1522194563
C        1.8256982201   -6.1566648992    4.2842171829
C        1.9401504938   -3.7819967888    4.8126278976
C        0.9966853159   -4.5069318548    2.6908815189
C        1.2374027632   -5.8401176212    3.0579966276
C        1.3539948164   -3.4801654642    3.5750021263
C       -0.3878052343    0.2064253322    0.8645626702
C        1.7699570212    0.4428575915    2.1606958360
C        0.5450637982   -1.7695736610    2.0769085999
C        0.3977836433   -0.2427907501    2.0956693026
O        0.9020154758   -6.8839624877    2.2266791571
O       -0.3974530747    0.1290760134    3.2323579456
O        1.1654014743   -2.1493778513    3.3083766448
H        2.6237216063   -5.3493160372    6.1096529132
H        2.0059552687   -7.1964937887    4.5370377859
H        2.2093574870   -2.9701117583    5.4809317301
H        0.5307730461   -4.2894644337    1.7348451592
H       -1.3759946764   -0.2628735652    0.8456487817
H       -0.5278644807    1.2904612476    0.8946692149
H        0.1449529854   -0.0477867959   -0.0572780894
H        2.3273564488    0.1153424644    3.0429146948
H        1.6338258256    1.5264074928    2.2171098414
H        2.3718198065    0.2127876138    1.2745946137
H       -0.4472738449   -2.2310471594    2.0030550787
H        1.1621134268   -2.0919240470    1.2280863475
H        0.7308481873   -6.5402273817    1.3359954220
H        0.0121958231   -0.2865336694    4.0101417553
27   
torsion grid (-150,)
C        2.1603494970   -5.1282772863    5.1634321188
C        1.8129332126   -6.1684132423    4.2947543256
C        1.9416315733   -3.7953296229    4.8217286100
C        0.9839231793   -4.5164717806    2.7053751888
C        1.2186182422   -5.8507174041    3.0728726602
C        1.3528909328   -3.4907275039    3.5852983314
C       -0.3772824075    0.2044660690    0.8797175969
C        1.7911501485    0.4255206326    2.1607288717
C        0.5468938518   -1.7765134050    2.0904209886
C        0.4127625074   -0.2485559702    2.1065784943
O        0.8658074289   -6.8917237577    2.2389731517
O       -0.3714671570    0.1329547897    3.2477329321
O        1.1718121453   -2.1588798625    3.3190264775
H        2.6216485835   -5.3639096346    6.1188265090
H        1.9926423681   -7.2088542746    4.5453075246
H        2.2187485228   -2.9839429760    5.4875230842
H        0.5059662417   -4.3009010836    1.7553637168
H       -1.3694173959   -0.2566421923    0.8684734679
H       -0.5080742581    1.2897037638    0.9083013888
H        0.1471272356   -0.0562529834   -0.0450915199
H        2.3517497362    0.0951998018    3.0398806044
H        1.6646174141    1.5103046162    2.2156996767
H        2.3849605869    0.1884878837    1.2710217948
H       -0.4494928900   -2.2301752749    2.0238976045
H        1.1558809322   -2.1061123218    1.2385933856
H        0.9230041904   -6.5939753865    1.3178142998
H        0.0387961298   -0.2856576495    4.0235678349
27   
torsion grid (-135,)
C        2.1504635825   -5.1346925625    5.1594210917
C        1.7941607819   -6.1722242000    4.2895407168
C        1.9395934524   -3.8012687356    4.8170075833
C        0.9697246171   -4.5148503603    2.7038284050
C        1.1977668758   -5.8501273901    3.0710029919
C        1.3484975674   -3.4918789038    3.5821677896
C       -0.3813403665    0.2135339921    0.8920286767
C        1.7992803919    0.4223522304    2.1543149107
C        0.5419602630   -1.7725190168    2.0948123002
C        0.4166497834   -0.2438992767    2.1120931335
O        0.8250477497   -6.8853860380    2.2302041881
O       -0.3554383924    0.1423068680    3.2599605151
O        1.1748098873   -2.1586060647    3.3185122268
H        2.6127688083   -5.3727388058    6.1137324343
H        1.9673411336   -7.2140979218    4.5388184538
H        2.2232890674   -2.9915052434    5.4822002133
H        0.4855635445   -4.3010212757    1.7571348502
H       -1.3761001114   -0.2419683942    0.8894043277
H       -0.5056624180    1.2995105400    0.9215803826
H        0.1335400054   -0.0503240312   -0.0372315485
H        2.3655349619    0.0889385369    3.0286810425
H        1.6794177661    1.5078431010    2.2102613570
H        2.3840483334    0.1819179838    1.2595334432
H       -0.4570996070   -2.2211929487    2.0363983055
H        1.1421974404   -2.1056201292    1.2381952118
H        1.1029695370   -6.6732067960    1.3257683451
H        0.0583091097   -0.2796681075    4.0320965327
27   
torsion grid (-120,)
C        2.1441189873   -5.1318757728    5.1509915529
C        1.7773757919   -6.1678555955    4.2825040834
C        1.9375470441   -3.7985233269    4.8066876357
C        0.9558730535   -4.5072666854    2.6981411952
C        1.1796913982   -5.8423501148    3.0661132018
C        1.3416314884   -3.4856067141    3.5746727910
C       -0.3922746729    0.2258358005    0.8965850865
C        1.7979837708    0.4268528693    2.1433335035
C        0.5318391232   -1.7632011827    2.0935767412
C        0.4125492249   -0.2341591536    2.1111791307
O        0.7868125666   -6.8713068615    2.2188081929
O       -0.3498599588    0.1556395219    3.2643498013
O        1.1719477692   -2.1514314091    3.3131147383
H        2.6074445504   -5.3705481980    6.1046568917
H        1.9411211357   -7.2109027898    4.5336333253
H        2.2264302737   -2.9896346409    5.4708842371
H        0.4691292524   -4.2971526788    1.7524538389
H       -1.3887290713   -0.2258936009    0.9011976625
H       -0.5121869393    1.3123047594    0.9265082373
H        0.1149628025   -0.0404988080   -0.0361551154
H        2.3691447701    0.0917076709    3.0138569976
H        1.6826938837    1.5128278260    2.1995909014
H        2.3754804015    0.1837743202    1.2445486215
H       -0.4690412066   -2.2085110462    2.0423962904
H        1.1246630662   -2.0990387510    1.2329387577
H        1.2589409225   -6.7827147606    1.3764670167
H        0.0675949234   -0.2677339273    4.0336978530
27   
torsion grid (-105,)
C        2.1362758598   -5.1527617048    5.1416309408
C        1.7565643966   -6.1830234350    4.2711297582
C        1.9401644149   -3.8169299173    4.8011088532
C        0.9535330181   -4.5114697604    2.6909269338
C        1.1672654589   -5.8488112192    3.0531490990
C        1.3444223803   -3.4950392110    3.5711675750
C       -0.3850928196    0.2339754739    0.9163408877
C        1.8113133338    0.4234044364    2.1540462717
C        0.5390740583   -1.7630259929    2.0997237222
C        0.4239953401   -0.2338482596    2.1250991244
O        0.7482792078   -6.8638840061    2.1954073954
O       -0.3319776440    0.1527021063    3.2836643121
O        1.1832425373   -2.1587711879    3.3151403719
H        2.5946861264   -5.3977601184    6.0960614683
H        1.9023756134   -7.2282325372    4.5249138854
H        2.2343183935   -3.0124730138    5.4685218571
H        0.4726766436   -4.2996935960    1.7430572427
H       -1.3826758205   -0.2151844682    0.9233590448
H       -0.5019334433    1.3206190012    0.9518643913
H        0.1171731394   -0.0294154479   -0.0199106516
H        2.3855214313    0.0826943801    3.0204093838
H        1.6991312816    1.5094005436    2.2159773658
H        2.3840680090    0.1830814364    1.2514938939
H       -0.4628778427   -2.2059168201    2.0505553291
H        1.1275935136   -2.0965248983    1.2353173456
H        1.3762327157   -6.9326273292    1.4596097832
H        0.0867174303   -0.2771478133    4.0487271202
27   
torsion grid (-90,)
C        2.1341518100   -5.1603050751    5.1261851285
C        1.7443651622   -6.1860158879    4.2548054539
C        1.9421106225   -3.8227749115    4.7893366198
C        0.9535129804   -4.5068141478    2.6769604150
C        1.1638317551   -5.8451050272    3.0337185358
C        1.3448538761   -3.4946126196    3.5619395912
C       -0.3864823494    0.2451330515    0.9245945341
C        1.8128964253    0.4292384777    2.1577830290
C        0.5398867225   -1.7565626067    2.0980438347
C        0.4253255098   -0.2275353815    2.1296309986
O        0.7206745895   -6.8445521196    2.1679559819
O       -0.3276890907    0.1549177502    3.2915637111
O        1.1865751655   -2.1571749347    3.3108449840
H        2.5886385987   -5.4098597924    6.0813214906
H        1.8755585249   -7.2322781362    4.5132740209
H        2.2386812453   -3.0215914249    5.4596369590
H        0.4801217422   -4.2942659150    1.7258181718
H       -1.3841657351   -0.2037709680    0.9322937609
H       -0.5028459381    1.3316844504    0.9644718518
H        0.1134344798   -0.0149917976   -0.0138137092
H        2.3890721217    0.0850484023    3.0214717287
H        1.7011895544    1.5150280168    2.2241391046
H        2.3834050684    0.1921708656    1.2529538225
H       -0.4620619850   -2.1993471496    2.0493031677
H        1.1265450270   -2.0869662889    1.2312867851
H        1.4466619546   -7.0910553984    1.5740630790
H        0.0922351491   -0.2788571292    4.0537241816
27   
torsion grid (-75,)
C        2.1387907846   -5.1569821270    5.1101125908
C        1.7443965849   -6.1807870120    4.2390354213
C        1.9452708963   -3.8182262479    4.7781833294
C        0.9575624694   -4.4977111929    2.6635116393
C        1.1690871833   -5.8362612383    3.0153183625
C        1.3454361357   -3.4878433592    3.5528469085
C       -0.3920427359    0.2555617501    0.9249987777
C        1.8064060147    0.4407646563    2.1596165985
C        0.5380486467   -1.7475371466    2.0929934636
C        0.4202488921   -0.2188882255    2.1290030245
O        0.7101344448   -6.8203851900    2.1426345015
O       -0.3340245172    0.1586658699    3.2917941794
O        1.1851106964   -2.1502378816    3.3050886878
H        2.5920473899   -5.4092868541    6.0651149175
H        1.8684474347   -7.2270161658    4.5025123998
H        2.2416698889   -3.0189390860    5.4507634342
H        0.4907007460   -4.2848052245    1.7094589941
H       -1.3887612873   -0.1955024775    0.9309682810
H       -0.5107084984    1.3417550755    0.9679490514
H        0.1088036504   -0.0008784527   -0.0139164452
H        2.3829703320    0.0952843711    3.0225351057
H        1.6923876710    1.5261319656    2.2290452459
H        2.3777649318    0.2074589086    1.2543563420
H       -0.4628405771   -2.1924286818    2.0426105658
H        1.1257682127   -2.0742826743    1.2256598196
H        1.4715836990   -7.2422590782    1.7151759143
H        0.0867232129   -0.2763140501    4.0528104925
27   
torsion grid (-60,)
C        2.1404799220   -5.1641437322    5.0934501896
C        1.7446348464   -6.1843070883    4.2191304436
C        1.9464806456   -3.8238232555    4.7685067108
C        0.9633531639   -4.4942121914    2.6479657333
C        1.1746600371   -5.8342229925    2.9932774975
C        1.3474674871   -3.4890740686    3.5438552306
C       -0.3892521256    0.2641550518    0.9297923786
C        1.8059081778    0.4473459406    2.1705066882
C        0.5422406990   -1.7431659214    2.0893287840
C        0.4212043328   -0.2150023985    2.1331640508
O        0.7091402219   -6.8010372535    2.1107208032
O       -0.3365033792    0.1548578654    3.2962634310
O        1.1872514533   -2.1507979488    3.3009843180
H        2.5918330401   -5.4214682069    6.0480209204
H        1.8653996165   -7.2308671719    4.4846474791
H        2.2421136136   -3.0276100020    5.4448950529
H        0.5046368561   -4.2775604671    1.6909409748
H       -1.3850499203   -0.1889779467    0.9310482587
H       -0.5102224879    1.3498738935    0.9781598958
H        0.1143001960    0.0136230278   -0.0092633471
H        2.3811757495    0.0984261419    3.0329062195
H        1.6894777393    1.5320980675    2.2454542962
H        2.3798372251    0.2199985334    1.2653657358
H       -0.4575394666   -2.1899093566    2.0342394076
H        1.1327943020   -2.0642323504    1.2218745600
H        1.4454202763   -7.3813695996    1.8624932555
H        0.0832024636   -0.2838409885    4.0557248646
27   
torsion grid (-45,)
C        2.1407125672   -5.1734274291    5.0782311923
C        1.7493795244   -6.1904783932    4.1982858794
C        1.9449580180   -3.8318052358    4.7614940597
C        0.9701327003   -4.4930080985    2.6326826503
C        1.1825718206   -5.8348535437    2.9717656563
C        1.3493128653   -3.4933413360    3.5357570632
C       -0.3834621398    0.2707971822    0.9347634535
C        1.8077873747    0.4502338980    2.1828750840
C        0.5472755934   -1.7414360022    2.0864582048
C        0.4240612948   -0.2136890907    2.1379641878
O        0.7248697193   -6.7859914777    2.0760958228
O       -0.3375087144    0.1490658057    3.3008409311
O        1.1887539752   -2.1543883806    3.2982100670
H        2.5903309881   -5.4359601376    6.0321788270
H        1.8744074503   -7.2374581836    4.4624030582
H        2.2376862892   -3.0385988256    5.4424856156
H        0.5186176882   -4.2717288751    1.6733350589
H       -1.3787002874   -0.1835557934    0.9307263360
H       -0.5059019183    1.3561082122    0.9884538721
H        0.1231393496    0.0257729912   -0.0041002110
H        2.3809863791    0.0974118777    3.0450603060
H        1.6897518755    1.5344292021    2.2632585370
H        2.3846295678    0.2283950756    1.2782256525
H       -0.4516607886   -2.1893178700    2.0257860955
H        1.1412007954   -2.0572020016    1.2194177050
H        1.3838798803   -7.4940506390    2.0054981890
H        0.0803255670   -0.2936941267    4.0589866151
27   
torsion grid (-30,)
C        2.1441220951   -5.1811463867    5.0654988217
C        1.7608921045   -6.1952472919    4.1783739189
C        1.9441283982   -3.8391122274    4.7555252383
C        0.9776397586   -4.4930562141    2.6196165761
C        1.1927843070   -5.8366330119    2.9529455299
C        1.3518370594   -3.4976976593    3.5283057588
C       -0.3773217964    0.2746589433    0.9365666224
C        1.8079651933    0.4526741165    2.1952631607
C        0.5523810586   -1.7410581845    2.0830399667
C        0.4258124290   -0.2138187389    2.1410817631
O        0.7537451453   -6.7759204646    2.0428623470
O       -0.3416530107    0.1419566096    3.3022871466
O        1.1888243504   -2.1582740518    3.2959472765
H        2.5936778740   -5.4477584741    6.0183296022
H        1.8966821715   -7.2425185642    4.4382510678
H        2.2325181683   -3.0480717406    5.4406908620
H        0.5293895636   -4.2679026139    1.6596631201
H       -1.3716488215   -0.1815923285    0.9260341797
H       -0.5021006429    1.3594810089    0.9946706584
H        0.1339044942    0.0348941982   -0.0011450156
H        2.3780543483    0.0968817349    3.0582880810
H        1.6873751048    1.5362419893    2.2802629224
H        2.3892480027    0.2362551302    1.2921523691
H       -0.4453594242   -2.1906357774    2.0155302431
H        1.1511403515   -2.0516790075    1.2175052605
H        1.2922231589   -7.5774389427    2.1350643265
H        0.0736527629   -0.3038135585    4.0600660073
27   
torsion grid (-15,)
C        2.1477718142   -5.1875222387    5.0558422307
C        1.7764758581   -6.1989332974    4.1603281584
C        1.9423929212   -3.8454172270    4.7517853073
C        0.9855672394   -4.4933359047    2.6083859311
C        1.2046683547   -5.8380493828    2.9372304409
C        1.3546028004   -3.5018785654    3.5223789858
C       -0.3710773517    0.2763581493    0.9367791340
C        1.8078522334    0.4537311213    2.2065265123
C        0.5567663702   -1.7417697884    2.0805224359
C        0.4271623503   -0.2149833474    2.1433733408
O        0.7936152425   -6.7689345298    2.0107641203
O       -0.3464776790    0.1352818847    3.3022021929
O        1.1876322478   -2.1621626092    3.2951906857
H        2.5974483009   -5.4572436664    6.0077203064
H        1.9276672461   -7.2462893443    4.4130865990
H        2.2246079977   -3.0560474503    5.4413156223
H        0.5379131521   -4.2652170204    1.6488405039
H       -1.3645688978   -0.1815336514    0.9199381246
H       -0.4979756415    1.3607625022    0.9980497199
H        0.1449969808    0.0407040617    0.0006856498
H        2.3744734034    0.0957708772    3.0709356331
H        1.6849655958    1.5367757810    2.2948711772
H        2.3937797297    0.2415632064    1.3054172349
H       -0.4398416746   -2.1928460361    2.0063286963
H        1.1605072299   -2.0483158178    1.2170276127
H        1.1773369510   -7.6298912008    2.2403744992
H        0.0660374118   -0.3125889674    4.0602721685
27   
torsion grid (0,)
C        2.1534139645   -5.1935057181    5.0488641123
C        1.7973806835   -6.2032918507    4.1451893281
C        1.9412484114   -3.8513921547    4.7503655116
C        0.9960604130   -4.4956396550    2.6009244987
C        1.2202021504   -5.8409739358    2.9251138699
C        1.3584808740   -3.5058023750    3.5188901631
C       -0.3641696997    0.2759510182    0.9357460250
C        1.8079714380    0.4534684260    2.2170362200
C        0.5610464791   -1.7436004232    2.0791794233
C        0.4286586505   -0.2171868953    2.1451620442
O        0.8425420779   -6.7668739504    1.9814062799
O       -0.3514602428    0.1289670969    3.3009199827
O        1.1855028221   -2.1660483330    3.2964040289
H        2.6033688959   -5.4648606878    6.0001285487
H        1.9671380577   -7.2501183869    4.3889405758
H        2.2157245171   -3.0634782274    5.4446218097
H        0.5470306068   -4.2661260616    1.6423745981
H       -1.3569171412   -0.1832970977    0.9127863712
H       -0.4929174394    1.3600258950    0.9989791464
H        0.1569544855    0.0432737679    0.0017114950
H        2.3707687587    0.0941088053    3.0833615938
H        1.6830022805    1.5360961366    2.3075431345
H        2.3987645100    0.2444854278    1.3183693652
H       -0.4344434636   -2.1960380786    1.9981461376
H        1.1701843313   -2.0470329341    1.2184142433
H        1.0454469112   -7.6549936698    2.3152156495
H        0.0580374568   -0.3200477131    4.0599480393
27   
torsion grid (15,)
C        2.1621866507   -5.1976315116    5.0448832245
C        1.8218694808   -6.2062808471    4.1339900640
C        1.9423256951   -3.8555074826    4.7513555185
C        1.0084736603   -4.4980018522    2.5962849694
C        1.2387736387   -5.8428573517    2.9170801966
C        1.3642219132   -3.5090531094    3.5181473074
C       -0.3570284286    0.2723935401    0.9334769729
C        1.8075043944    0.4529174543    2.2271648678
C        0.5663796558   -1.7466961548    2.0791412093
C        0.4301277242   -0.2206993138    2.1466029954
O        0.8953045800   -6.7675391275    1.9575298294
O       -0.3572731348    0.1219943186    3.2984819136
O        1.1842244394   -2.1695993873    3.2995764379
H        2.6129203711   -5.4693132642    5.9956793244
H        2.0101513467   -7.2520410654    4.3678295865
H        2.2087853012   -3.0686022366    5.4499287997
H        0.5575541765   -4.2682564691    1.6386667465
H       -1.3486730667   -0.1888971988    0.9044209001
H       -0.4883990915    1.3561101306    0.9974229054
H        0.1697351960    0.0420386439    0.0020386384
H        2.3663047921    0.0934646258    3.0960384823
H        1.6796358803    1.5351238407    2.3186270326
H        2.4037295437    0.2466045596    1.3314819307
H       -0.4276181886   -2.2012088287    1.9913076452
H        1.1814308646   -2.0475217932    1.2217072086
H        0.8990168874   -7.6510897010    2.3582187550
H        0.0493103175   -0.3267676092    4.0592201938
27   
torsion grid (30,)
C        2.1240025312   -5.1677220953    5.0732288672
C        1.8220821645   -6.1828784484    4.1562959775
C        1.8991666924   -3.8290354608    4.7660528176
C        1.0303408097   -4.4906381541    2.5909683034
C        1.2626504534   -5.8312577281    2.9249399085
C        1.3540369215   -3.4925224878    3.5157540534
C       -0.2988621691    0.2631066819    0.8494429104
C        1.8211952751    0.4599523412    2.2125217913
C        0.5910650104   -1.7441104618    2.0413977015
C        0.4489111064   -0.2180176586    2.0919335147
O        0.9755371882   -6.7674491038    1.9531873230
O       -0.3771297611    0.1318089102    3.2142618352
O        1.1686753592   -2.1557340576    3.2851869936
H        2.5535407521   -5.4296574197    6.0365327274
H        2.0233561655   -7.2249485497    4.3936607724
H        2.1394287000   -3.0363787059    5.4677118805
H        0.6011659059   -4.2705976057    1.6211825081
H       -1.2880741837   -0.2007042307    0.7916670971
H       -0.4344797765    1.3470088988    0.8998727771
H        0.2587513469    0.0261673269   -0.0621685451
H        2.3518918606    0.1089425416    3.1022240162
H        1.6877276261    1.5424977186    2.2910027278
H        2.4471883982    0.2481234015    1.3387151383
H       -0.3984398573   -2.2018388726    1.9239842985
H        1.2351062792   -2.0502021417    1.2074809597
H        0.7615571154   -7.6103648433    2.3828824573
H        0.0058956423   -0.3084449179    3.9919933664
27   
torsion grid (45,)
C        2.1337578106   -5.1540055210    5.0798190136
C        1.8400053511   -6.1716075266    4.1632496270
C        1.8980936384   -3.8170075127    4.7708487340
C        1.0327466599   -4.4871171861    2.5982310775
C        1.2736715201   -5.8249660281    2.9339597000
C        1.3512110393   -3.4842912007    3.5210062618
C       -0.3090574122    0.2578701233    0.8402420134
C        1.8031116571    0.4672196856    2.2136114409
C        0.5832680867   -1.7425414631    2.0416387212
C        0.4344346680   -0.2169660921    2.0877147827
O        1.0078121933   -6.7715907442    1.9595456413
O       -0.3989948244    0.1319900395    3.2048786239
O        1.1576375809   -2.1488416450    3.2887000431
H        2.5679210287   -5.4106218552    6.0425079915
H        2.0541472954   -7.2117752007    4.3950665745
H        2.1340638845   -3.0220418307    5.4715140544
H        0.6021403960   -4.2716902909    1.6280365826
H       -1.2959978880   -0.2102774948    0.7786023811
H       -0.4495402025    1.3412978890    0.8872656166
H        0.2541819121    0.0210154360   -0.0679138407
H        2.3306716429    0.1210169545    3.1070573853
H        1.6645943659    1.5493966709    2.2882869551
H        2.4346092786    0.2555952595    1.3437403925
H       -0.4040059665   -2.2044013671    1.9213972774
H        1.2317746655   -2.0481868296    1.2110370005
H        0.5867732309   -7.5403326644    2.3747615061
H       -0.0163378629   -0.3020158304    3.9862761539
27   
torsion grid (60,)
C        2.1453985882   -5.1479437823    5.0869051237
C        1.8573929157   -6.1677755157    4.1709842855
C        1.9022770294   -3.8123368243    4.7758640650
C        1.0450559800   -4.4891138389    2.6033587350
C        1.2917421392   -5.8249644435    2.9411090998
C        1.3562398646   -3.4824054916    3.5253926332
C       -0.3154067603    0.2478380212    0.8355537128
C        1.7906946136    0.4712083268    2.2159768403
C        0.5845593485   -1.7459434668    2.0421410845
C        0.4265805815   -0.2212373277    2.0860975038
O        1.0399188369   -6.7850361564    1.9689413495
O       -0.4129129957    0.1238036773    3.1999409848
O        1.1580406235   -2.1477684151    3.2910364806
H        2.5803059785   -5.4002352126    6.0504071254
H        2.0757768172   -7.2072393322    4.3994731670
H        2.1340479412   -3.0154708079    5.4759653897
H        0.6195539159   -4.2767474462    1.6301978292
H       -1.2993491114   -0.2262096032    0.7710000684
H       -0.4624996756    1.3304502591    0.8809299726
H        0.2523692830    0.0133748238   -0.0703834705
H        2.3172024761    0.1292731179    3.1116857293
H        1.6455041410    1.5526342614    2.2887698920
H        2.4264989590    0.2622298346    1.3486208425
H       -0.3998006599   -2.2134991324    1.9197531011
H        1.2368936707   -2.0487157054    1.2134633036
H        0.4239475240   -7.4425000054    2.3279285854
H       -0.0289399854   -0.3048786536    3.9836161547
27   
torsion grid (75,)
C        2.1590007408   -5.1430211677    5.0955821606
C        1.8716132541   -6.1657232137    4.1823261049
C        1.9101455260   -3.8092203133    4.7809853548
C        1.0587178657   -4.4928603038    2.6091950417
C        1.3102648570   -5.8271569436    2.9505125522
C        1.3631142887   -3.4827273769    3.5301397678
C       -0.3203987373    0.2359697276    0.8322105230
C        1.7803122173    0.4732920285    2.2184713472
C        0.5880514955   -1.7512888769    2.0431472959
C        0.4208140067   -0.2275095021    2.0852978754
O        1.0618584339   -6.8040329960    1.9889264332
O       -0.4240634163    0.1132971910    3.1963641373
O        1.1611727188   -2.1488087264    3.2934736415
H        2.5935756486   -5.3910614134    6.0603367474
H        2.0864144147   -7.2054189358    4.4110234510
H        2.1390595767   -3.0099340937    5.4794183299
H        0.6401418717   -4.2827292261    1.6324238368
H       -1.3012774210   -0.2440711156    0.7652102494
H       -0.4742171754    1.3176940914    0.8762434266
H        0.2514236655    0.0042338570   -0.0718747132
H        2.3063126077    0.1354376365    3.1160237981
H        1.6283514382    1.5538817345    2.2897740178
H        2.4198922497    0.2673348336    1.3531833725
H       -0.3934006315   -2.2245554677    1.9189232088
H        1.2438941660   -2.0509615303    1.2160658155
H        0.2809620377   -7.3147640485    2.2533584397
H       -0.0387847699   -0.3108128309    3.9818791129
27   
torsion grid (90,)
C        2.1737935943   -5.1430932861    5.1032216947
C        1.8832033640   -6.1688951020    4.1940050925
C        1.9213370158   -3.8109330562    4.7854220289
C        1.0732822686   -4.5004598950    2.6145175638
C        1.3281706400   -5.8340428832    2.9594775288
C        1.3720387313   -3.4878931784    3.5344817892
C       -0.3186922304    0.2220677286    0.8292297953
C        1.7780040068    0.4693200285    2.2198288998
C        0.5952838951   -1.7603450519    2.0439787996
C        0.4217029063   -0.2371992804    2.0843519965
O        1.0756891994   -6.8278977449    2.0143396040
O       -0.4270258494    0.1010222911    3.1932284349
O        1.1669169453   -2.1545965900    3.2958325788
H        2.6068992511   -5.3879311174    6.0694462958
H        2.0889575802   -7.2094203363    4.4256678197
H        2.1483891733   -3.0094327450    5.4819840814
H        0.6618607794   -4.2905014166    1.6344483086
H       -1.2974951684   -0.2619789403    0.7605710123
H       -0.4770199515    1.3031870435    0.8719248697
H        0.2560376043   -0.0081090509   -0.0734121439
H        2.3034626250    0.1344198018    3.1188002843
H        1.6213982792    1.5493203391    2.2899079221
H        2.4202935111    0.2653122131    1.3560943363
H       -0.3840893753   -2.2375224110    1.9177137800
H        1.2543031810   -2.0580390343    1.2186541992
H        0.1773417907   -7.1680503666    2.1480445381
H       -0.0417173344   -0.3206841324    3.9800278296
27   
torsion grid (105,)
C        2.1848490451   -5.1383603454    5.1129150528
C        1.8864290004   -6.1689133031    4.2115984299
C        1.9322715852   -3.8075122870    4.7904852641
C        1.0812000966   -4.5060676530    2.6234473542
C        1.3377198611   -5.8390285607    2.9736543604
C        1.3784222675   -3.4900193138    3.5399797869
C       -0.3264449990    0.2092771619    0.8285013958
C        1.7704449029    0.4669274066    2.2168989289
C        0.5963094316   -1.7676833800    2.0457014446
C        0.4168179913   -0.2450924825    2.0837192254
O        1.0741543064   -6.8497813070    2.0513924364
O       -0.4324070310    0.0913934644    3.1926582087
O        1.1715691407   -2.1576528548    3.2969367915
H        2.6162438393   -5.3796479379    6.0807920086
H        2.0789181073   -7.2101478118    4.4501615371
H        2.1601087873   -3.0030620225    5.4833515041
H        0.6755279413   -4.2954261941    1.6408363991
H       -1.3034281956   -0.2786797792    0.7614269252
H       -0.4890420220    1.2898132910    0.8696801576
H        0.2484529616   -0.0199369011   -0.0742820006
H        2.2979729719    0.1355929266    3.1159690922
H        1.6096501040    1.5464145553    2.2852941112
H        2.4128248287    0.2640100965    1.3529770767
H       -0.3816664372   -2.2485002968    1.9218882185
H        1.2550049142   -2.0641115801    1.2195637077
H        0.1180186342   -7.0100965086    2.0261056428
H       -0.0439292135   -0.3260265283    3.9801913760
27   
torsion grid (120,)
C        2.1922879552   -5.1331322414    5.1229207520
C        1.8842966350   -6.1679130737    4.2302590671
C        1.9421311669   -3.8029250738    4.7960416376
C        1.0821231148   -4.5097187301    2.6345266386
C        1.3375447552   -5.8424694555    2.9902686092
C        1.3825019837   -3.4908183729    3.5468179408
C       -0.3362618397    0.1991761636    0.8308760032
C        1.7646313171    0.4640639444    2.2118635615
C        0.5945153871   -1.7733786509    2.0493016370
C        0.4120498886   -0.2510059409    2.0846094884
O        1.0624845134   -6.8660041185    2.0911740638
O       -0.4342965389    0.0859055798    3.1955027194
O        1.1754817818   -2.1593452685    3.2988055784
H        2.6235069393   -5.3717669133    6.0915339469
H        2.0643731395   -7.2093905635    4.4766359889
H        2.1730438860   -2.9958763989    5.4847196776
H        0.6778688567   -4.2971217883    1.6513194398
H       -1.3124442415   -0.2909635987    0.7679782473
H       -0.5010859180    1.2794281509    0.8704026451
H        0.2362283705   -0.0305424733   -0.0733219168
H        2.2957409241    0.1357375486    3.1099123477
H        1.6017938786    1.5433528952    2.2784821551
H        2.4046435862    0.2606636104    1.3462950630
H       -0.3832122060   -2.2560718636    1.9304430292
H        1.2505287554   -2.0701515390    1.2210380594
H        0.1140720371   -6.8601678352    1.8889925775
H       -0.0421416364   -0.3284830908    3.9828312973
27   
torsion grid (135,)
C        2.1927577033   -5.1203174837    5.1333254416
C        1.8763058660   -6.1581526659    4.2486434087
C        1.9459434776   -3.7898899426    4.8030785840
C        1.0730866478   -4.5044605802    2.6483755130
C        1.3260566735   -5.8371034293    3.0082058662
C        1.3801993322   -3.4828576513    3.5559348332
C       -0.3560890688    0.2001808493    0.8403697092
C        1.7548736222    0.4680022434    2.2053793328
C        0.5832283472   -1.7696401752    2.0570062947
C        0.4012396266   -0.2470455827    2.0897418412
O        1.0424936747   -6.8696533923    2.1301735857
O       -0.4369286324    0.0926614159    3.2058382390
O        1.1739126345   -2.1522214242    3.3025858933
H        2.6259914547   -5.3570219188    6.1015148160
H        2.0490883024   -7.1993395492    4.5010720774
H        2.1815584914   -2.9808997662    5.4876954430
H        0.6653791536   -4.2890730038    1.6666996565
H       -1.3325839727   -0.2903199439    0.7854412388
H       -0.5210011732    1.2804555609    0.8787832169
H        0.2100854762   -0.0311732900   -0.0673974123
H        2.2924266377    0.1417111257    3.1003103284
H        1.5927066434    1.5474740153    2.2705852340
H        2.3885215687    0.2624282639    1.3356385405
H       -0.3957035513   -2.2521210975    1.9470619141
H        1.2326421239   -2.0682476377    1.2240825385
H        0.1631630258   -6.7258559055    1.7475076455
H       -0.0394587625   -0.3202253176    3.9913105348
27   
torsion grid (150,)
C        2.1911822905   -5.1234501634    5.1432914741
C        1.8680318064   -6.1638450368    4.2655673231
C        1.9507168592   -3.7923955502    4.8088696236
C        1.0648488745   -4.5134236081    2.6614587997
C        1.3126849639   -5.8462121628    3.0254942413
C        1.3813598476   -3.4890174595    3.5630841838
C       -0.3574978029    0.1905662504    0.8429596421
C        1.7632789415    0.4545507758    2.1934798771
C        0.5816075607   -1.7788180666    2.0608355409
C        0.4059948816   -0.2553020402    2.0890748885
O        1.0197995832   -6.8851726344    2.1661386951
O       -0.4236124568    0.0917714991    3.2091612046
O        1.1791016398   -2.1588613848    3.3037042465
H        2.6268793257   -5.3587306420    6.1107186761
H        2.0369302027   -7.2044240319    4.5229791251
H        2.1925620340   -2.9817333128    5.4891370194
H        0.6493768937   -4.2961664703    1.6828961023
H       -1.3364271283   -0.2959213857    0.7961805408
H       -0.5175865962    1.2716618609    0.8784620075
H        0.2018178206   -0.0464287873   -0.0676216933
H        2.3051526344    0.1292753120    3.0861547370
H        1.6059433491    1.5349061311    2.2557699075
H        2.3905397639    0.2432557243    1.3204692228
H       -0.4001423223   -2.2574569704    1.9593008406
H        1.2243073392   -2.0828108783    1.2245454081
H        0.2640625626   -6.6352088231    1.6121612115
H       -0.0230347068   -0.3200650090    3.9936243030
27   
torsion grid (165,)
C        2.1851369883   -5.1193554400    5.1487704315
C        1.8557028683   -6.1605189142    4.2756509981
C        1.9497962253   -3.7873514841    4.8123934626
C        1.0454055111   -4.5118587638    2.6732244866
C        1.2899060441   -5.8448187082    3.0387973961
C        1.3747854737   -3.4861852087    3.5692692979
C       -0.3689338525    0.1926025434    0.8503395664
C        1.7638910184    0.4506681924    2.1829824070
C        0.5706738177   -1.7775202769    2.0668882658
C        0.4024500965   -0.2530392484    2.0916754390
O        0.9854409860   -6.8874931184    2.1939652249
O       -0.4164192651    0.1013913307    3.2172306799
O        1.1763836964   -2.1561926653    3.3060017879
H        2.6273184406   -5.3542912124    6.1133314201
H        2.0265510346   -7.2006105360    4.5337500867
H        2.2001048551   -2.9758523314    5.4884694266
H        0.6153767182   -4.2928978678    1.7008692608
H       -1.3503969273   -0.2895612307    0.8128017052
H       -0.5238702170    1.2745078526    0.8839263276
H        0.1820554840   -0.0495028353   -0.0639864347
H        2.3113376502    0.1255364106    3.0722897951
H        1.6121460168    1.5319381244    2.2432177251
H        2.3831271006    0.2338026553    1.3056012505
H       -0.4141844357   -2.2516781172    1.9747843950
H        1.2052772577   -2.0869056162    1.2263063955
H        0.3960444709   -6.5682623281    1.4929001715
H       -0.0121925035   -0.3108173175    3.9996414935
27   
torsion grid (180,)
C        2.1731144112   -5.1113478608    5.1473864057
C        1.8393626713   -6.1522536085    4.2763462731
C        1.9407090397   -3.7786493552    4.8105250869
C        1.0171641122   -4.5036215258    2.6798708266
C        1.2612538461   -5.8367099846    3.0446127515
C        1.3594130479   -3.4773295023    3.5707082207
C       -0.3873769901    0.2057222323    0.8581296386
C        1.7602675465    0.4528490934    2.1690507753
C        0.5513477650   -1.7676842146    2.0708104639
C        0.3933128358   -0.2419290005    2.0929320945
O        0.9437755595   -6.8806506505    2.2084311160
O       -0.4120513228    0.1209449464    3.2253960127
O        1.1636673558   -2.1470861750    3.3063210549
H        2.6235555430   -5.3462871393    6.1081157838
H        2.0166293797   -7.1921177982    4.5310768446
H        2.1996698914   -2.9670554224    5.4831776824
H        0.5677840685   -4.2842444540    1.7162187596
H       -1.3720729064   -0.2704760700    0.8313477516
H       -0.5353294526    1.2886548937    0.8908367342
H        0.1531091963   -0.0416374439   -0.0610607590
H        2.3138851897    0.1266957733    3.0541536065
H        1.6165804542    1.5353027975    2.2272655003
H        2.3695312110    0.2289071107    1.2864528227
H       -0.4371614368   -2.2356470110    1.9868656638
H        1.1780968395   -2.0831074723    1.2265272733
H        0.5526393509   -6.5296546468    1.3931131339
H       -0.0034299494   -0.2925081249    4.0048533612
