13   
torsion grid (-165,)
C       -0.4562616151    0.8435739121    0.6016820032
C       -0.7720312156   -0.7391204629    2.5518982396
C       -0.1941235578    0.5904227620    2.0810266702
O       -0.5313872547   -0.8175893967    3.9664390691
O       -0.7878038426    1.6658929080    2.8154345867
H       -1.5064775833    1.1127940110    0.4521396654
H        0.1492465268    1.6837931222    0.2500940081
H       -0.2117924809   -0.0338222113   -0.0058664741
H       -1.8497497494   -0.7626747738    2.3379931639
H       -0.2828398826   -1.5720992422    2.0277450355
H        0.8900909555    0.5853496507    2.2729793248
H       -1.0680187664   -1.5336003296    4.3372907631
H       -0.7342349521    1.4122574449    3.7532013723
13   
torsion grid (-150,)
C       -0.4555056525    0.8406748210    0.5998450230
C       -0.7414618853   -0.7530107008    2.5496980240
C       -0.2065621409    0.5969053776    2.0877609734
O       -0.5254899176   -0.8224956245    3.9680471602
O       -0.8552878942    1.6491639652    2.8127803788
H       -1.4331696754    1.3139267083    0.4717354422
H        0.2902798850    1.5275611121    0.1899601453
H       -0.4171920158   -0.0872394621    0.0199759869
H       -1.8131383500   -0.8175267160    2.3140156893
H       -0.2106905989   -1.5662232162    2.0348277960
H        0.8712107469    0.6415891038    2.3050848897
H       -1.0389809873   -1.5603311224    4.3287191005
H       -0.7963827907    1.4033648713    3.7524028499
13   
torsion grid (-135,)
C       -0.4608711431    0.8532927738    0.5998844041
C       -0.7098694569   -0.7512572484    2.5483540034
C       -0.2284511235    0.6224985078    2.0979063291
O       -0.5042783367   -0.8208811814    3.9678868327
O       -0.9363456982    1.6414712928    2.8157421909
H       -1.3175592382    1.5200990360    0.4734389430
H        0.4014117635    1.3355400662    0.1314814399
H       -0.6555637307   -0.0809315295    0.0626768892
H       -1.7757776812   -0.8586715819    2.3020171206
H       -0.1410581877   -1.5378750585    2.0324343523
H        0.8416007960    0.7087437271    2.3375817037
H       -0.9898338203   -1.5817310833    4.3193385978
H       -0.8786627321    1.3967217192    3.7558219294
13   
torsion grid (-120,)
C       -0.4676344794    0.8696593105    0.6036397672
C       -0.6799014846   -0.7412203038    2.5489919979
C       -0.2578709110    0.6558999071    2.1097849818
O       -0.4707037373   -0.8142427572    3.9679294004
O       -1.0263219519    1.6362634129    2.8160916402
H       -1.1551546133    1.7062605512    0.4584305936
H        0.4689328829    1.1017627825    0.0900868092
H       -0.9059605883   -0.0108504661    0.1208927539
H       -1.7407324289   -0.8909505091    2.3030198218
H       -0.0794985586   -1.4985079926    2.0246115985
H        0.8046036359    0.7752522407    2.3688796992
H       -0.9162818799   -1.6027462367    4.3114233575
H       -0.9816276721    1.3875711004    3.7558801740
13   
torsion grid (-105,)
C       -0.4715126779    0.8865901819    0.6146583808
C       -0.6494437103   -0.7312964577    2.5513924150
C       -0.2840034381    0.6853929061    2.1226953206
O       -0.4423449265   -0.8045569796    3.9710329109
O       -1.1078840591    1.6275902759    2.8143454115
H       -0.9548391903    1.8513874505    0.4427757942
H        0.4797815463    0.8608025843    0.0770347338
H       -1.1270125421    0.1209947650    0.1834969297
H       -1.7025932649   -0.9225819174    2.3019029494
H       -0.0174028721   -1.4602316119    2.0238030237
H        0.7710825815    0.8369314640    2.3970283671
H       -0.8471782971   -1.6183484258    4.3060438963
H       -1.0842152126    1.3694432452    3.7522936351
13   
torsion grid (-90,)
C       -0.4820056207    0.9005528646    0.6234950481
C       -0.6186373429   -0.7270791139    2.5510979238
C       -0.3074942072    0.7046335345    2.1282526756
O       -0.4253690074   -0.7916591081    3.9735227221
O       -1.1794170810    1.6110491566    2.8067360163
H       -0.7484402261    1.9421538540    0.4262771970
H        0.4287308948    0.6464628819    0.0744157871
H       -1.3032967641    0.2860093082    0.2364298311
H       -1.6597603326   -0.9625655415    2.2899751802
H        0.0495384789   -1.4293115791    2.0319972518
H        0.7389057266    0.8971700948    2.4123758402
H       -0.7975980594   -1.6229502774    4.3033642918
H       -1.1645089942    1.3495968338    3.7438593751
13   
torsion grid (-75,)
C       -0.4945274181    0.9111216533    0.6299782101
C       -0.5875350591   -0.7259021027    2.5515379517
C       -0.3267621281    0.7165006694    2.1314110378
O       -0.4180593808   -0.7785663834    3.9778527750
O       -1.2389205599    1.5899840830    2.7992214177
H       -0.5419242146    1.9800102870    0.4048410082
H        0.3368937881    0.4644195494    0.0764669361
H       -1.4315508497    0.4630855758    0.2804696004
H       -1.6133543541   -1.0042563740    2.2727474630
H        0.1179895083   -1.4021544180    2.0481505611
H        0.7080966028    0.9566941859    2.4229319277
H       -0.7636757281   -1.6227583502    4.3038806199
H       -1.2266057805    1.3278356767    3.7360896082
13   
torsion grid (-60,)
C       -0.5202472547    0.9286395138    0.6343038692
C       -0.5537520685   -0.7179434650    2.5524119132
C       -0.3457110958    0.7332276052    2.1333665845
O       -0.4218798588   -0.7582515386    3.9831299644
O       -1.2927521350    1.5722210633    2.7992152747
H       -0.3580116515    1.9781708049    0.3742865818
H        0.1984566437    0.3206393100    0.0745430058
H       -1.5338515079    0.6527522452    0.3258226256
H       -1.5571094966   -1.0444009179    2.2454529195
H        0.1966108540   -1.3630112271    2.0740472964
H        0.6748064387    1.0257012730    2.4273103479
H       -0.7539836521   -1.6092666297    4.3052148794
H       -1.2696626774    1.3124205097    3.7365551364
13   
torsion grid (-45,)
C       -0.5389971807    0.9396881414    0.6357607372
C       -0.5241083279   -0.7140405865    2.5518799320
C       -0.3674140844    0.7443831133    2.1369605307
O       -0.4222158265   -0.7500285824    3.9847463228
O       -1.3545430178    1.5451716547    2.7953214713
H       -0.1781413821    1.9259623308    0.3323973093
H        0.0384357899    0.1932995416    0.0783468133
H       -1.5936651513    0.8460926558    0.3610501610
H       -1.5055817349   -1.0820902031    2.2215841070
H        0.2635762368   -1.3263029127    2.0908917568
H        0.6318664812    1.0883726339    2.4458957286
H       -0.7311149296   -1.6121179293    4.3002605849
H       -1.3185836327    1.2967431038    3.7353303065
13   
torsion grid (-30,)
C       -0.5377989389    0.9404053071    0.6349612074
C       -0.4899414661   -0.7156405509    2.5523102943
C       -0.3807046379    0.7481979894    2.1428073253
O       -0.4164802885   -0.7527361351    3.9862603448
O       -1.4095954216    1.5092241190    2.7879990537
H        0.0119172743    1.8185176082    0.2867799003
H       -0.1416496918    0.0779659876    0.0861826974
H       -1.5961516973    1.0531256857    0.3860615950
H       -1.4494499932   -1.1196277504    2.1996150702
H        0.3300211958   -1.2953509991    2.1055369500
H        0.5945761226    1.1348469374    2.4747366471
H       -0.6969071138   -1.6275566456    4.2931628117
H       -1.3735210106    1.2651736053    3.7292574940
13   
torsion grid (-15,)
C       -0.5441022018    0.9482593883    0.6332157768
C       -0.4604085486   -0.7040330147    2.5554668161
C       -0.4092318589    0.7638937195    2.1495484069
O       -0.3975317163   -0.7431089626    3.9895678949
O       -1.4827674578    1.4759607013    2.7781970302
H        0.1755412088    1.6743716367    0.2468306206
H       -0.3707304409    0.0077854385    0.0974932888
H       -1.5553310279    1.2901323158    0.4007021921
H       -1.3993643138   -1.1461166426    2.1931077763
H        0.3865528691   -1.2472003738    2.1126711885
H        0.5425871851    1.1865940980    2.5035640627
H       -0.6433737044   -1.6300260600    4.2914007421
H       -1.4498965098    1.2338084200    3.7201468438
13   
torsion grid (0,)
C       -0.5627232440    0.9516765158    0.6356191116
C       -0.4393551051   -0.6865788280    2.5657619192
C       -0.4553250722    0.7819125825    2.1580422365
O       -0.3669455125   -0.7217554779    3.9996929492
O       -1.5732250645    1.4389294910    2.7654705735
H        0.2979529588    1.4846782665    0.2233786357
H       -0.6438067866   -0.0105676284    0.1180372474
H       -1.4612522966    1.5303533136    0.4086122929
H       -1.3607954368   -1.1689220236    2.2099958461
H        0.4272522116   -1.1929056307    2.1167817127
H        0.4755772047    1.2357775970    2.5290037156
H       -0.5606202403   -1.6212073253    4.3026375029
H       -1.5484258889    1.1965191260    3.7076035068
13   
torsion grid (15,)
C       -0.4174186564    0.8153562998    0.5932192181
C       -1.0739036725   -0.5035281193    2.6496380331
C       -0.0441501522    0.4347751912    2.0301854638
O       -0.6308870543   -0.7849476549    3.9868935950
O        0.0516219939    1.6299792456    2.8090472556
H        0.1841788274    0.2682215810   -0.1378298440
H       -1.4783489494    0.6483709515    0.3790395897
H       -0.2122336546    1.8798618101    0.4519544082
H       -2.0538548440   -0.0059858127    2.6616179165
H       -1.1473402426   -1.4270764783    2.0573456725
H        0.9180741487   -0.0994542854    2.0413159978
H       -1.3502508909   -1.2156731462    4.4720291225
H        0.1311251205    1.3430059390    3.7355192982
13   
torsion grid (30,)
C       -0.4159219152    0.8373114341    0.6057680950
C       -1.0469085242   -0.5147530098    2.6447460409
C       -0.0494762857    0.4685537714    2.0418282254
O       -0.6049084998   -0.7870200838    3.9847886133
O       -0.0146330133    1.6642783930    2.8230633270
H        0.0231556161    0.1341992360   -0.1082331589
H       -1.4992838658    0.8850602388    0.4546382765
H       -0.0023251387    1.8250954093    0.3827552720
H       -2.0458507879   -0.0567837358    2.6517013755
H       -1.0786316298   -1.4368427954    2.0466985630
H        0.9334889284   -0.0274997989    2.0594422753
H       -1.3109505404   -1.2492517182    4.4604748333
H        0.0570991824    1.3788542245    3.7505163096
13   
torsion grid (45,)
C       -0.4261019669    0.8228624141    0.5990323867
C       -1.0358362830   -0.5578416613    2.6250486716
C       -0.0675200103    0.4616175803    2.0347037744
O       -0.6155509056   -0.7928668768    3.9794273135
O       -0.0862301852    1.6581612441    2.8150652705
H       -0.1720947709    0.0069294065   -0.0850998496
H       -1.4897720060    1.0630780631    0.4995775299
H        0.1488595526    1.7027788031    0.2967255708
H       -2.0544299254   -0.1463427040    2.6011773807
H       -1.0102124638   -1.4886498390    2.0408281183
H        0.9365741623    0.0092548380    2.0606116523
H       -1.3166323218   -1.2704261122    4.4471525289
H       -0.0237190935    1.3750836460    3.7438766675
13   
torsion grid (60,)
C       -0.4251445091    0.8290339575    0.6021899712
C       -1.0144342818   -0.5839577523    2.6139377129
C       -0.0744911208    0.4698532207    2.0388240623
O       -0.6187957888   -0.7894793090    3.9803965406
O       -0.1468109855    1.6647402725    2.8205148340
H       -0.3700579396   -0.0516572598   -0.0463754419
H       -1.4367385148    1.2446931105    0.5471908794
H        0.2723207370    1.5816921670    0.2249841437
H       -2.0486392397   -0.2164723926    2.5600822486
H       -0.9341974160   -1.5183104428    2.0407660232
H        0.9495429615    0.0659288311    2.0792856103
H       -1.3145961754   -1.2844891400    4.4376503896
H       -0.0771467694    1.3829865681    3.7491700568
13   
torsion grid (75,)
C       -0.4222793618    0.8303754961    0.6028662395
C       -0.9916025980   -0.6084980661    2.6049712395
C       -0.0799273662    0.4771582231    2.0447807261
O       -0.6229590395   -0.7884830700    3.9820896916
O       -0.2077073029    1.6698939944    2.8255323560
H       -0.5733419858   -0.0709923151   -0.0009204950
H       -1.3502183946    1.4111580020    0.5809621588
H        0.3682094361    1.4344533175    0.1509070962
H       -2.0379784814   -0.2830364087    2.5210741311
H       -0.8590500802   -1.5429840608    2.0419501822
H        0.9606710834    0.1224401235    2.1068826679
H       -1.3121597918   -1.3032961800    4.4272181128
H       -0.1256943899    1.3926742573    3.7545381488
13   
torsion grid (90,)
C       -0.4232590869    0.8402034516    0.6029817778
C       -0.9645684289   -0.6222844934    2.5993250611
C       -0.0869751751    0.4974837678    2.0534171014
O       -0.6143675394   -0.7878808057    3.9824080688
O       -0.2741069563    1.6844540146    2.8343733527
H       -0.7803648343   -0.0381261049    0.0542061258
H       -1.2296675075    1.5799958258    0.5958500727
H        0.4350662278    1.2658940474    0.0782100051
H       -2.0211954795   -0.3376900086    2.4952835768
H       -0.7853952985   -1.5505191977    2.0386985743
H        0.9665500528    0.1909074845    2.1379394128
H       -1.2904446331   -1.3296737571    4.4154452177
H       -0.1821079074    1.4112396903    3.7637236415
13   
torsion grid (105,)
C       -0.4233184696    0.8382067694    0.6005625886
C       -0.9387574325   -0.6404801048    2.5950700971
C       -0.0987100242    0.5144758241    2.0633681429
O       -0.6006008737   -0.7996350970    3.9816359648
O       -0.3490364961    1.6920668782    2.8412794695
H       -0.9815038449    0.0285847127    0.1176124950
H       -1.0562878894    1.7294766806    0.5748185696
H        0.4759207966    1.0408611101    0.0142493189
H       -2.0040378178   -0.3956490791    2.4782304852
H       -0.7173497936   -1.5580825775    2.0316985806
H        0.9629087623    0.2470215843    2.1706768442
H       -1.2602465960   -1.3699360101    4.4033083679
H       -0.2612123439    1.4217587982    3.7719490735
13   
torsion grid (120,)
C       -0.4307389068    0.8426168391    0.6036587703
C       -0.9128740715   -0.6509525010    2.5941135349
C       -0.1184120745    0.5425395723    2.0769997840
O       -0.5697364373   -0.8131193242    3.9792049435
O       -0.4353788663    1.7048728426    2.8510262892
H       -1.1731832364    0.1504040505    0.1912761569
H       -0.8367597401    1.8541039708    0.5278594594
H        0.4636227501    0.7854155746   -0.0221078500
H       -1.9866983793   -0.4457784654    2.4797558245
H       -0.6563461333   -1.5520497370    2.0186831809
H        0.9490051489    0.3073663024    2.2015667113
H       -1.2031527487   -1.4190351332    4.3913910243
H       -0.3602512136    1.4361356551    3.7833486978
13   
torsion grid (135,)
C       -0.4271893840    0.8230822201    0.5963626261
C       -0.8908660074   -0.6777165447    2.5798860340
C       -0.1374050502    0.5484713031    2.0766779509
O       -0.5508681346   -0.8366453642    3.9664878724
O       -0.5203102276    1.6972826917    2.8374952926
H       -1.3191627749    0.2916172780    0.2464968288
H       -0.5785959710    1.8947598389    0.4498713121
H        0.4073431808    0.5050849799   -0.0355566108
H       -1.9706334786   -0.5107448628    2.4609500056
H       -0.5985971592   -1.5648262494    1.9994794988
H        0.9342177956    0.3439358093    2.2214655890
H       -1.1551834882   -1.4793369390    4.3666469493
H       -0.4668139978    1.4321900057    3.7722616554
13   
torsion grid (150,)
C       -0.4319881036    0.8376756442    0.6061763817
C       -0.8611446216   -0.6842945893    2.5756033912
C       -0.1532202361    0.5740848740    2.0850157009
O       -0.5290843188   -0.8328952702    3.9656965260
O       -0.5933948431    1.7042909328    2.8403884632
H       -1.4301267601    0.4939478946    0.3131152964
H       -0.3491101117    1.9074381499    0.4010558694
H        0.2915855970    0.3090266121   -0.0228313630
H       -1.9455666156   -0.5615816685    2.4469411732
H       -0.5270479111   -1.5573231957    1.9966003750
H        0.9247684779    0.4099210831    2.2385252387
H       -1.1093258785   -1.5025862490    4.3571642364
H       -0.5541120994    1.4366011640    3.7750232487
13   
torsion grid (165,)
C       -0.4332901041    0.8355259313    0.6053289938
C       -0.8324110666   -0.7052803373    2.5661035585
C       -0.1661446436    0.5783538488    2.0828196460
O       -0.5238657419   -0.8304831071    3.9642503394
O       -0.6591506276    1.6926315477    2.8290248390
H       -1.4917800964    0.6931490344    0.3621484151
H       -0.1490058601    1.8595985594    0.3507189310
H        0.1516002562    0.1493948457   -0.0163634099
H       -1.9180590673   -0.6288327820    2.4143229544
H       -0.4502320064   -1.5679767002    2.0020200709
H        0.9168308463    0.4627392639    2.2479808843
H       -1.0855556262   -1.5195999760    4.3489865029
H       -0.6231216343    1.4281366904    3.7646323592
13   
torsion grid (180,)
C       -0.4448136171    0.8341343188    0.6013339754
C       -0.8017490087   -0.7299866217    2.5550702646
C       -0.1790378522    0.5773074005    2.0775828559
O       -0.5322932484   -0.8262649266    3.9636603643
O       -0.7206105736    1.6733005160    2.8187142408
H       -1.5210122717    0.8982270992    0.4098813587
H        0.0096144378    1.7824939619    0.3017798629
H       -0.0206365074    0.0367638595   -0.0178052655
H       -1.8842238945   -0.7065669418    2.3674276922
H       -0.3612973226   -1.5801807290    2.0154560325
H        0.9069020256    0.5158092722    2.2519439384
H       -1.0859989993   -1.5251237774    4.3421687795
H       -0.6814090533    1.4103267782    3.7546295124
