18   
torsion grid (-165,)
C        0.3335885029    4.2697982697   -0.3725365596
C        0.5384953077    2.7775107826   -0.0898390244
C        0.0407000655    1.8803797183   -1.2376498569
C        0.2035460853    0.4125940046   -0.9476407079
C        0.9594396092   -0.4368819037   -1.6551330181
C        1.1301470459   -1.9028726321   -1.3555276732
H        0.6977599760    4.8872245888    0.4557079807
H        0.8690556880    4.5773546600   -1.2783742898
H       -0.7275103573    4.5021074255   -0.5210507225
H        0.0158394696    2.5030115875    0.8357419938
H        1.6015687645    2.5724953650    0.0857912702
H        0.5750389097    2.1364758461   -2.1608854244
H       -1.0211309427    2.1026067414   -1.4186698205
H       -0.3354731382    0.0333815529   -0.0756687323
H        1.4840889367   -0.0573838595   -2.5344179206
H        0.3827114928   -2.2553039447   -0.6379203064
H        1.0237886654   -2.5037516029   -2.2667806311
H        2.1276834811   -2.1163866214   -0.9503027517
18   
torsion grid (-150,)
C        0.2308975745    4.2704378431   -0.3203691910
C        0.5347149256    2.7852279828   -0.0952938496
C        0.0299893926    1.8935171279   -1.2445343621
C        0.2875475950    0.4300193044   -1.0067802927
C        1.0740430220   -0.3490025678   -1.7605224735
C        1.3428748176   -1.8126121635   -1.5084494113
H        0.6029191580    4.8842940468    0.5070459310
H        0.6993153860    4.6341399814   -1.2424097370
H       -0.8480334854    4.4447067700   -0.4068762040
H        0.0773092026    2.4544204834    0.8462803625
H        1.6153749912    2.6374902880    0.0200649554
H        0.5037181118    2.2043010856   -2.1839467192
H       -1.0499439798    2.0612487010   -1.3676301218
H       -0.1996721958   -0.0065490983   -0.1309320614
H        1.5374222694    0.0873959041   -2.6473229518
H        0.5066888984   -2.2911645321   -0.9889847662
H        1.4905172744   -2.3508147296   -2.4512937706
H        2.2517194396   -1.9607507014   -0.9114962084
18   
torsion grid (-135,)
C        0.2884862732    4.2817465431   -0.3607801886
C        0.5739830716    2.7960549479   -0.1156900980
C        0.0180310015    1.8912384358   -1.2305361859
C        0.2588356584    0.4283340651   -0.9729027817
C        1.0057443517   -0.3783672227   -1.7376498866
C        1.2584191567   -1.8442526016   -1.4615979042
H        0.6967930059    4.9049495213    0.4421786283
H        0.7337187586    4.6191268577   -1.3040697935
H       -0.7895160956    4.4732807454   -0.4170780426
H        0.1410507369    2.4917593571    0.8461896865
H        1.6550975321    2.6315929480   -0.0313673943
H        0.4664559302    2.1756507946   -2.1905197201
H       -1.0623788311    2.0752546782   -1.3226121479
H       -0.2063417113    0.0174359918   -0.0726817713
H        1.4512064452    0.0366666625   -2.6431916268
H        0.3424406241   -2.3602554629   -1.1553715375
H        1.6335451476   -2.3535789494   -2.3547291521
H        2.0064723889   -1.9853308912   -0.6720108736
18   
torsion grid (-120,)
C        0.2457894866    4.2713573513   -0.3334060692
C        0.5835845015    2.7930531681   -0.1111630053
C        0.0086488545    1.8794656973   -1.2089535178
C        0.3009179384    0.4224544633   -0.9721607693
C        1.0269773731   -0.3612103037   -1.7796477336
C        1.3303667036   -1.8229330430   -1.5247234822
H        0.6687787757    4.9011845270    0.4566768838
H        0.6419039189    4.6273029536   -1.2916595653
H       -0.8386712209    4.4319374275   -0.3440543559
H        0.1992695593    2.4704071320    0.8652954620
H        1.6715335260    2.6595390343   -0.0721101843
H        0.4089510685    2.1821701053   -2.1845017016
H       -1.0794413329    2.0331699208   -1.2559242816
H       -0.1070173437   -0.0043191864   -0.0516197531
H        1.4330720683    0.0762315890   -2.6929236827
H        0.4131124221   -2.4188746720   -1.4572177925
H        1.9392703491   -2.2488846827   -2.3271826736
H        1.8796836240   -1.9623041605   -0.5866083967
18   
torsion grid (-105,)
C        0.2484676103    4.2699808217   -0.3384808320
C        0.6064712018    2.7962355047   -0.1176362523
C        0.0011538011    1.8696689102   -1.1877003008
C        0.3146182603    0.4169938700   -0.9510911697
C        1.0048771134   -0.3708915917   -1.7854249020
C        1.3269806059   -1.8274347995   -1.5336706721
H        0.6934720420    4.9091954590    0.4317137264
H        0.6076838960    4.6220561099   -1.3125786050
H       -0.8370392318    4.4214657048   -0.3122072744
H        0.2594096201    2.4777671031    0.8740346169
H        1.6962353032    2.6721202343   -0.1157869280
H        0.3632032851    2.1685697683   -2.1792311882
H       -1.0893011386    2.0134274499   -1.1969958274
H       -0.0464673496   -0.0033580644   -0.0083843929
H        1.3842243734    0.0652455837   -2.7109714649
H        0.4516665750   -2.4669396624   -1.7019787535
H        2.1280239080   -2.1815585076   -2.1887929592
H        1.6444934989   -1.9914186834   -0.4981437321
18   
torsion grid (-90,)
C        0.2439388768    4.2787154915   -0.3391703608
C        0.6225296694    2.8089235136   -0.1265340657
C       -0.0151118199    1.8730397500   -1.1693396072
C        0.3203988676    0.4240963249   -0.9396615998
C        0.9858436848   -0.3609269592   -1.7966117588
C        1.3302085163   -1.8104737004   -1.5554870664
H        0.7124034271    4.9247727107    0.4111442938
H        0.5629505976    4.6297740978   -1.3275300381
H       -0.8410341335    4.4212739465   -0.2722836667
H        0.3160870560    2.4915679078    0.8787755786
H        1.7125860491    2.6938627689   -0.1655679022
H        0.3055100115    2.1715996115   -2.1751080967
H       -1.1063700907    2.0067617738   -1.1370355350
H       -0.0013857979    0.0034835691    0.0167875133
H        1.3342871367    0.0756081532   -2.7345264465
H        0.5501178545   -2.4764179772   -1.9468954000
H        2.2740597303   -2.0862124686   -2.0364108830
H        1.4196688232   -2.0228642423   -0.4848987476
18   
torsion grid (-75,)
C        0.2773927879    4.3040634010   -0.3684515037
C        0.6492513301    2.8347514562   -0.1411970220
C       -0.0243392560    1.8871394239   -1.1502990309
C        0.3046293906    0.4393694175   -0.9039896390
C        0.9409180836   -0.3668799886   -1.7633810209
C        1.2803137891   -1.8118380395   -1.5078582210
H        0.7714496720    4.9583794980    0.3579082750
H        0.5724168133    4.6357289012   -1.3708592752
H       -0.8041292450    4.4573050190   -0.2747235033
H        0.3675778998    2.5370162020    0.8772631302
H        1.7368381989    2.7093834449   -0.2076813605
H        0.2720337746    2.1655820289   -2.1691753214
H       -1.1130994138    2.0314169775   -1.0913493298
H        0.0059734649    0.0385189227    0.0680652860
H        1.2602113341    0.0445711192   -2.7231860446
H        0.6256652699   -2.4808902914   -2.0816750565
H        2.3127713108   -2.0381498222   -1.7976010241
H        1.1590106915   -2.0664671326   -0.4499658250
18   
torsion grid (-60,)
C        0.3187959842    4.3022558886   -0.4115069127
C        0.6793846329    2.8345082618   -0.1575631112
C       -0.0317116773    1.8707907463   -1.1248725141
C        0.2869088450    0.4254607449   -0.8517565241
C        0.8977028095   -0.4071656972   -1.7044795003
C        1.2299389712   -1.8476509929   -1.4238554312
H        0.8392360361    4.9680644747    0.2853914300
H        0.5913420921    4.6056228895   -1.4291260810
H       -0.7580519958    4.4709920402   -0.2936779498
H        0.4213169978    2.5653478219    0.8749980596
H        1.7632952868    2.6941440673   -0.2493408273
H        0.2407315896    2.1209589228   -2.1576530532
H       -1.1167645668    2.0294286588   -1.0405456235
H        0.0037066052    0.0500471828    0.1348422399
H        1.1844404633   -0.0278748332   -2.6876778661
H        0.7353288676   -2.5153884089   -2.1406655530
H        2.3083374829   -2.0299356208   -1.5139993363
H        0.9189534360   -2.1414622210   -0.4164605482
18   
torsion grid (-45,)
C        0.3702577451    4.3015602565   -0.4661652699
C        0.7068328730    2.8342978966   -0.1786215741
C       -0.0525591475    1.8584539091   -1.0959852525
C        0.2423772119    0.4151184631   -0.7880958260
C        0.8268419120   -0.4509188343   -1.6259184279
C        1.1396467845   -1.8892144277   -1.3089993787
H        0.9248929679    4.9758951173    0.1952644201
H        0.6193881595    4.5687216007   -1.4998124532
H       -0.6988492291    4.4975050071   -0.3227718124
H        0.4734749453    2.6013847940    0.8685217927
H        1.7843292576    2.6672432850   -0.2972218337
H        0.1962049955    2.0716267982   -2.1429582532
H       -1.1309727659    2.0442435466   -0.9863493422
H       -0.0322031471    0.0723356430    0.2127763928
H        1.0858594961   -0.1089805355   -2.6301202585
H        0.8325014450   -2.5517647539   -2.1267734474
H        2.2209053972   -2.0366797597   -1.1839542495
H        0.6478424219   -2.2175619415   -0.3883942178
18   
torsion grid (-30,)
C        0.3640080858    4.3130917262   -0.4719395637
C        0.7198389446    2.8478079315   -0.1977734313
C       -0.0652758538    1.8677572832   -1.0886999069
C        0.2485572989    0.4261030391   -0.7922006105
C        0.8131075882   -0.4344118698   -1.6491654656
C        1.1459829091   -1.8732549458   -1.3405748379
H        0.9377614629    4.9905198945    0.1697296660
H        0.5742841776    4.5823695851   -1.5136390373
H       -0.7004786233    4.5022405055   -0.2901943521
H        0.5251217933    2.6127350856    0.8567628565
H        1.7934969794    2.6876816940   -0.3545943423
H        0.1461355758    2.0825523722   -2.1435375230
H       -1.1402851670    2.0474446256   -0.9417106063
H        0.0077536533    0.0807128293    0.2166651024
H        1.0267172723   -0.0906145548   -2.6629590919
H        1.0561479668   -2.5025929902   -2.2323196206
H        2.1871783915   -1.9703357608   -1.0039457569
H        0.5048750163   -2.2811158769   -0.5533645194
18   
torsion grid (-15,)
C        0.3461497580    4.3107578674   -0.4534900804
C        0.7358438999    2.8497487939   -0.2036604284
C       -0.0660785589    1.8629410622   -1.0717571639
C        0.2828496763    0.4247664820   -0.7990698877
C        0.8182038440   -0.4223798641   -1.6874468303
C        1.1849862520   -1.8614788300   -1.4001959776
H        0.9323371030    4.9931959247    0.1714071612
H        0.5129344711    4.5905945497   -1.5002588199
H       -0.7137541472    4.4809603034   -0.2308158805
H        0.5846103152    2.6044091092    0.8556726816
H        1.8053430183    2.7085569978   -0.4017160625
H        0.1013298291    2.0886133206   -2.1322292569
H       -1.1376202738    2.0234420854   -0.8827197048
H        0.0950859744    0.0708946974    0.2183774622
H        0.9841526534   -0.0653571589   -2.7051410575
H        1.3261472314   -2.4286897275   -2.3250579683
H        2.1316523650   -1.9258070143   -0.8483037421
H        0.4213203390   -2.3649395927   -0.7989770840
18   
torsion grid (0,)
C        0.3690512835    4.3047599694   -0.4782824368
C        0.7681527369    2.8471726139   -0.2232380428
C       -0.0635028626    1.8489621182   -1.0491627847
C        0.2951373843    0.4144504949   -0.7700181809
C        0.7874540633   -0.4480104780   -1.6684113459
C        1.1612623776   -1.8859139229   -1.3744982362
H        0.9769457026    4.9954915615    0.1160122077
H        0.4979980158    4.5706568731   -1.5339924791
H       -0.6822629526    4.4778918592   -0.2199875978
H        0.6547298940    2.6158422388    0.8439515311
H        1.8300469968    2.7035458167   -0.4572237511
H        0.0658393594    2.0601813161   -2.1179160998
H       -1.1278203244    2.0122251273   -0.8246792900
H        0.1513229548    0.0767356451    0.2601380385
H        0.9316137829   -0.0989295391   -2.6919789383
H        1.5383345892   -2.3898934209   -2.2689146752
H        1.9416080132   -1.9502977437   -0.6076315913
H        0.3004778636   -2.4599672268   -1.0130931061
18   
torsion grid (15,)
C        0.4903671584    4.2861879970   -0.5244892628
C        0.8427386378    2.8235627359   -0.2321936345
C       -0.0437690553    1.8313717069   -1.0066669366
C        0.2701792676    0.3940065339   -0.6905307104
C        0.7095922683   -0.5131648025   -1.5722250658
C        1.0368961037   -1.9529074935   -1.2437374891
H        1.1365283943    4.9722745805    0.0337152895
H        0.6038830098    4.5143283369   -1.5907600808
H       -0.5476684351    4.5056982399   -0.2483503905
H        0.7466063677    2.6297564419    0.8441306738
H        1.8928763481    2.6337877895   -0.4855155150
H        0.0665324084    2.0048474737   -2.0843058868
H       -1.0958092183    2.0399223642   -0.7627390402
H        0.1369877097    0.0928048571    0.3521813476
H        0.8667232837   -0.1953788852   -2.6042335829
H        1.6370771731   -2.4148416516   -2.0333508089
H        1.5814341687   -2.0418686278   -0.2982726670
H        0.1240813129   -2.5557197161   -1.1542996079
18   
torsion grid (30,)
C        0.5790326492    4.3040581073   -0.5391922996
C        0.8944218312    2.8361745181   -0.2314712960
C       -0.0386538655    1.8593124004   -0.9697935666
C        0.2405019788    0.4181285753   -0.6383183348
C        0.6296463771   -0.5157943419   -1.5157446759
C        0.9210865902   -1.9567671207   -1.1767955275
H        1.2575216539    4.9789379083   -0.0062583443
H        0.6753687151    4.5124245317   -1.6111882549
H       -0.4456222608    4.5587184516   -0.2439128322
H        0.8172672774    2.6618361037    0.8496940555
H        1.9324030905    2.6110824205   -0.5051563930
H        0.0511574149    2.0135444898   -2.0522369339
H       -1.0781411513    2.1023676630   -0.7049916783
H        0.1250658390    0.1367508694    0.4117660918
H        0.7770493181   -0.2197775122   -2.5560534340
H        1.7010490055   -2.3679679288   -1.8264042508
H        1.2293427380   -2.0766359354   -0.1338224587
H        0.0328781953   -2.5836011716   -1.3343307653
18   
torsion grid (45,)
C        0.5781988291    4.3265265511   -0.5991915392
C        0.9008548002    2.8659055614   -0.2655649569
C       -0.0514190935    1.8730500231   -0.9564030086
C        0.2366878665    0.4395458032   -0.5999200299
C        0.5925106926   -0.5171103191   -1.4669240295
C        0.8922697849   -1.9478606950   -1.1062964314
H        1.2702798378    5.0129886965   -0.0995749411
H        0.6472057275    4.5098360341   -1.6778501914
H       -0.4385077444    4.5889000411   -0.2838693666
H        0.8515449892    2.7169321809    0.8209998331
H        1.9313901110    2.6335651672   -0.5605457516
H        0.0091210319    2.0030176287   -2.0440344605
H       -1.0834869889    2.1221426158   -0.6691647668
H        0.1563684372    0.1834676035    0.4596540963
H        0.6951133455   -0.2519171276   -2.5212313144
H        1.8111265194   -2.2951705018   -1.5933792580
H        0.9973741814   -2.0795807618   -0.0251578378
H        0.0909310698   -2.6155345658   -1.4504003700
18   
torsion grid (60,)
C        0.5250840892    4.3038420086   -0.5948249930
C        0.8963615384    2.8486124983   -0.2894416049
C       -0.0654186490    1.8392051184   -0.9422985162
C        0.2707584402    0.4103593375   -0.6099553911
C        0.6214820123   -0.5289263196   -1.4977704640
C        0.9734186979   -1.9528630336   -1.1620989949
H        1.2250730771    5.0022741949   -0.1236195339
H        0.5373398791    4.4965270980   -1.6739839059
H       -0.4806909890    4.5406059083   -0.2283347500
H        0.9028663782    2.6905259627    0.7969253483
H        1.9164364750    2.6420946903   -0.6355376091
H       -0.0583495514    1.9774691571   -2.0305481950
H       -1.0880231970    2.0634367386   -0.6052444273
H        0.2371093067    0.1436126959    0.4494013590
H        0.6578637926   -0.2586271187   -2.5553080693
H        1.9953205425   -2.1937409123   -1.4817419030
H        0.9020493875   -2.1399246611   -0.0860944307
H        0.3068990374   -2.6576109905   -1.6751608086
18   
torsion grid (75,)
C        0.5737669106    4.2911824674   -0.6934599278
C        0.9185759082    2.8429495346   -0.3293910500
C       -0.0858967697    1.8287296771   -0.9063967403
C        0.2246479397    0.4091356956   -0.5149092875
C        0.5436952320   -0.5756067027   -1.3646300471
C        0.8741353730   -1.9905031810   -0.9681137631
H        1.3038159516    4.9929335208   -0.2758369825
H        0.5593419398    4.4324793926   -1.7805155298
H       -0.4149261153    4.5704915023   -0.3108173930
H        0.9529135011    2.7360121030    0.7626696581
H        1.9228054573    2.5943565182   -0.6936633256
H       -0.1058723179    1.9149716653   -1.9998389723
H       -1.0926373515    2.0950969528   -0.5528045688
H        0.2023335314    0.1910548045    0.5558925776
H        0.5488251452   -0.3573431048   -2.4345879535
H        1.9496970274   -2.1887848974   -1.0656724391
H        0.6008826977   -2.1843283179    0.0741702204
H        0.3499841996   -2.7169516871   -1.5994585975
18   
torsion grid (90,)
C        0.5322422477    4.3052204593   -0.6172591735
C        0.9231830994    2.8516751599   -0.3288409162
C       -0.0845584207    1.8390316950   -0.9030478523
C        0.2714871918    0.4122081609   -0.5834324828
C        0.5816252768   -0.5279773678   -1.4853097311
C        0.9594347533   -1.9520094777   -1.1575732515
H        1.2654042070    5.0059321810   -0.2033571690
H        0.4662730661    4.4899220171   -1.6958664869
H       -0.4439783162    4.5463163605   -0.1804417742
H        1.0084423276    2.7014737634    0.7553141391
H        1.9151191292    2.6408547673   -0.7466792214
H       -0.1536229019    1.9680112111   -1.9902770020
H       -1.0801339534    2.0688828805   -0.4962181385
H        0.2924332385    0.1494435918    0.4775300732
H        0.5331463746   -0.2654655834   -2.5438082671
H        2.0465895596   -2.0612169780   -1.0501671166
H        0.5144702617   -2.2709626539   -0.2091557843
H        0.6310533043   -2.6466521351   -1.9371287149
18   
torsion grid (105,)
C        0.5397337957    4.3073215800   -0.6414521602
C        0.9401957661    2.8567809663   -0.3508780724
C       -0.0839284585    1.8381873985   -0.8840062933
C        0.2834799612    0.4146694986   -0.5629960280
C        0.5522090198   -0.5368439656   -1.4662078063
C        0.9405288955   -1.9609057237   -1.1345139041
H        1.2848383037    5.0122935949   -0.2571725326
H        0.4405767377    4.4813610079   -1.7192866791
H       -0.4227608857    4.5524128074   -0.1772515989
H        1.0584798902    2.7173633572    0.7316285247
H        1.9190812157    2.6422927002   -0.7966982875
H       -0.1870193529    1.9568066949   -1.9697493862
H       -1.0666640414    2.0713869172   -0.4486776369
H        0.3498261088    0.1651291456    0.4995685029
H        0.4659450352   -0.2826228194   -2.5238956122
H        1.9850158119   -2.0251972115   -0.8049656090
H        0.3263845372   -2.3621071858   -0.3210577587
H        0.8238505174   -2.6215706123   -1.9982883468
18   
torsion grid (120,)
C        0.5917612238    4.2596039353   -0.3467678692
C        0.5098662800    2.7613391621   -0.0347185466
C        0.1170223188    1.9183216716   -1.2616431319
C       -0.0067805557    0.4513462599   -0.9501474151
C        0.7426711925   -0.5189523337   -1.4888237475
C        0.6224615956   -1.9916321416   -1.1565058321
H        0.8769420280    4.8373838422    0.5390516064
H        1.3333681585    4.4602223248   -1.1288324948
H       -0.3726706848    4.6433276804   -0.6997287023
H       -0.2191564893    2.5919244583    0.7684587910
H        1.4746747671    2.4051639937    0.3464202717
H        0.8561468284    2.0650054980   -2.0589781320
H       -0.8410356094    2.2936704937   -1.6502403645
H       -0.7634276641    0.1815815855   -0.2080877107
H        1.4977235518   -0.2379573901   -2.2245400059
H        0.8088517668   -2.1808399099   -0.0931704486
H       -0.3778487942   -2.3760346523   -1.3859759739
H        1.3409350901   -2.5880089070   -1.7259760113
18   
torsion grid (135,)
C        0.5903288781    4.2608362588   -0.3518981032
C        0.5310217296    2.7624618240   -0.0353316193
C        0.0980098578    1.9149542933   -1.2454050070
C       -0.0030588648    0.4475259369   -0.9277333113
C        0.7232919071   -0.5196999486   -1.5024540564
C        0.6266155255   -1.9915773835   -1.1661621121
H        0.9047090469    4.8418509831    0.5218378149
H        1.3003253295    4.4656780854   -1.1617141574
H       -0.3895023291    4.6372088992   -0.6684952911
H       -0.1658766467    2.5889898603    0.7950402355
H        1.5120772013    2.4137591677    0.3095315061
H        0.8046121419    2.0660706256   -2.0708980768
H       -0.8770258906    2.2825093364   -1.5975765931
H       -0.7221560268    0.1741474755   -0.1506391537
H        1.4572692283   -0.2339064469   -2.2576303702
H        0.5777652964   -2.1550008511   -0.0844556441
H       -0.2586260407   -2.4543492737   -1.6188880199
H        1.4998675828   -2.5373940161   -1.5367837998
18   
torsion grid (150,)
C        0.5479182433    4.2864543605   -0.3510591296
C        0.5388329393    2.7848897677   -0.0443874720
C        0.0739062696    1.9355947413   -1.2412982694
C        0.0233802385    0.4638201501   -0.9313861113
C        0.7502658741   -0.4805557113   -1.5423731328
C        0.7086043007   -1.9534710906   -1.2158340175
H        0.8855448806    4.8688793505    0.5130105092
H        1.2170802110    4.5144228735   -1.1889844593
H       -0.4535322765    4.6407927048   -0.6221603621
H       -0.1165821741    2.5884091995    0.8141500400
H        1.5421904662    2.4579129650    0.2545129336
H        0.7392459158    2.1106331078   -2.0958185316
H       -0.9245858577    2.2808460492   -1.5471131111
H       -0.6561734781    0.1660856344   -0.1284343649
H        1.4515581029   -0.1718806456   -2.3198624836
H        0.4370670009   -2.1255019724   -0.1694874991
H       -0.0067261297   -2.4900576444   -1.8518895513
H        1.6880898512   -2.4168918374   -1.3779592477
18   
torsion grid (165,)
C        0.4217201569    4.2856492779   -0.3799422811
C        0.5260622011    2.7866150753   -0.0785855498
C        0.0607187599    1.9090718796   -1.2548031155
C        0.1216686410    0.4370440845   -0.9476188404
C        0.8815298561   -0.4572881813   -1.5928178255
C        0.9542885997   -1.9267988068   -1.2716209532
H        0.7616911526    4.8886463037    0.4689638553
H        1.0332354393    4.5574882091   -1.2482869657
H       -0.6127545651    4.5734757693   -0.6012347136
H       -0.0728760671    2.5470768579    0.8097471770
H        1.5619462734    2.5261665086    0.1705891618
H        0.6713104994    2.1278957023   -2.1395467709
H       -0.9718318324    2.1879914798   -1.5110560945
H       -0.4994780743    0.0945186891   -0.1160184470
H        1.5188911857   -0.1069195522   -2.4073409564
H        0.5032903735   -2.1473336567   -0.2990670494
H        0.4456325592   -2.5305108347   -2.0342135516
H        1.9956882561   -2.2692877035   -1.2398172517
18   
torsion grid (180,)
C        0.3468616090    4.2669357648   -0.3711808174
C        0.5271121175    2.7716796149   -0.0874006157
C        0.0510435630    1.8832053116   -1.2511227964
C        0.1865227792    0.4130226913   -0.9591084129
C        0.9617244374   -0.4425896852   -1.6377004116
C        1.1094817794   -1.9088797422   -1.3339668138
H        0.6961303078    4.8780136894    0.4681196074
H        0.9095298115    4.5706115406   -1.2617177417
H       -0.7072123983    4.5118638019   -0.5469273432
H       -0.0237601312    2.5006010605    0.8226973282
H        1.5825474683    2.5540006761    0.1166636581
H        0.6152160560    2.1338607338   -2.1579511159
H       -1.0019868863    2.1198080126   -1.4625499802
H       -0.3886266766    0.0377939965   -0.1088670592
H        1.5387219389   -0.0639621124   -2.4841583955
H        0.4994759171   -2.2033851652   -0.4743093201
H        0.8080176786   -2.5235106022   -2.1916462913
H        2.1538768502   -2.1641560693   -1.1138437105
