14   
torsion grid (-165,)
C        0.1134359563   -2.0629778936    0.1657801974
C       -1.8065257264    1.3938128048   -0.6209100275
C       -0.2613710281    0.1894602955    0.7280510927
O        0.4349378036    1.2604797378    1.3044944174
O        0.6564375990   -0.8370040978    0.6550211609
O       -0.7296153935    0.4691560584   -0.5787018213
H        0.9060399005   -2.8060233496    0.2673558054
H       -0.1836946082   -1.9766931204   -0.8836562602
H       -0.7539114591   -2.3775550867    0.7642469992
H       -2.1921614016    1.3874315203   -1.6420309851
H       -1.4767686088    2.4140552753   -0.3793829173
H       -2.6173098342    1.1030389498    0.0652040517
H       -1.1343286586   -0.0896743014    1.3539776990
H       -0.2091262034    1.9225948526    1.5973847748
14   
torsion grid (-150,)
C        0.1233416403   -2.0612469020    0.1634175588
C       -1.8070519138    1.4007861962   -0.6380830133
C       -0.2711265264    0.1952800489    0.7103453895
O        0.4207604476    1.2992715336    1.2282939627
O        0.6553178865   -0.8263009172    0.6435197747
O       -0.7739277459    0.4269146674   -0.5897673983
H        0.9196151640   -2.7983169895    0.2797645030
H       -0.1668606714   -1.9888103472   -0.8887602855
H       -0.7469148950   -2.3742165182    0.7586816107
H       -2.2105183791    1.3846588592   -1.6521193835
H       -1.4220681743    2.4066718456   -0.4259432568
H       -2.6181443943    1.1645833390    0.0688589570
H       -1.1221503436   -0.0733759026    1.3704152979
H       -0.2022627009    1.8486640178    1.7259682276
14   
torsion grid (-135,)
C        0.1239387692   -2.0560872866    0.1693779569
C       -1.8158700805    1.4024651115   -0.6577368031
C       -0.2794232313    0.2073472473    0.6926091633
O        0.4004605430    1.3364715908    1.1722017234
O        0.6536367910   -0.8125018012    0.6301848583
O       -0.7951801536    0.4140591326   -0.6023100465
H        0.9231775162   -2.7890648128    0.2918599594
H       -0.1717750449   -1.9990166145   -0.8821682350
H       -0.7426498272   -2.3643171896    0.7727491518
H       -2.2110500541    1.3897625882   -1.6750155849
H       -1.4169118134    2.4000827320   -0.4386697571
H       -2.6343083874    1.1749996368    0.0434630812
H       -1.1175826764   -0.0569856121    1.3705211492
H       -0.1412213953    1.7618089926    1.8520112012
14   
torsion grid (-120,)
C        0.1238407550   -2.0477232016    0.1807599819
C       -1.8307151364    1.4013960888   -0.6755746102
C       -0.2880384162    0.2220671263    0.6766517980
O        0.3704949944    1.3711160820    1.1381840162
O        0.6526530559   -0.7953352607    0.6187138944
O       -0.7991499934    0.4223566207   -0.6163942038
H        0.9262860936   -2.7767835940    0.3062295284
H       -0.1814214269   -2.0064199677   -0.8688899934
H       -0.7365525628   -2.3507496098    0.7958283904
H       -2.2118849634    1.3920956988   -1.6982069508
H       -1.4441409019    2.3988681063   -0.4388712201
H       -2.6541827330    1.1570189836    0.0134524308
H       -1.1221759822   -0.0476387604    1.3573222842
H       -0.0456072808    1.6621267649    1.9618883455
14   
torsion grid (-105,)
C        0.1201694875   -2.0376676915    0.1955054731
C       -1.8426768274    1.4038114494   -0.6965604184
C       -0.2955054136    0.2388657193    0.6603575533
O        0.3410395356    1.4004966304    1.1194035540
O        0.6508772271   -0.7777264868    0.6090704335
O       -0.7904161034    0.4450550210   -0.6334293760
H        0.9243778171   -2.7644287402    0.3232335850
H       -0.1952793980   -2.0118184961   -0.8518024909
H       -0.7339810155   -2.3331807888    0.8230231247
H       -2.1988669130    1.4064751264   -1.7281765847
H       -1.4833686445    2.4028617803   -0.4284907900
H       -2.6748984227    1.1258719728   -0.0318365340
H       -1.1326840710   -0.0390840287    1.3342930053
H        0.0837569307    1.5550026174    2.0399515780
14   
torsion grid (-90,)
C        0.2615705914   -1.9685132261    0.0462183217
C       -1.9971984939    1.3458012444   -0.6302224828
C       -0.2859390485    0.2630019258    0.5888613675
O        0.2789442889    1.4576015615    1.0548323559
O        0.7284463511   -0.6807667488    0.4513840757
O       -0.8601494517    0.4853257983   -0.6646977801
H        1.1226003982   -2.6371453117    0.0988195631
H       -0.1289797219   -1.9450500166   -0.9756726893
H       -0.5221369844   -2.3379966295    0.7244282768
H       -2.4007661750    1.3656294033   -1.6440311321
H       -1.7165878683    2.3585472900   -0.3239696917
H       -2.7666531366    0.9587919257    0.0546072993
H       -1.0618220619   -0.1033010432    1.2938292159
H        0.2661921500    1.4467121105    2.0239659071
14   
torsion grid (-75,)
C        0.2634722903   -1.9573366012    0.0628766616
C       -2.0149224114    1.3466715557   -0.6428143603
C       -0.3065406105    0.2734265898    0.5864938922
O        0.2362216748    1.4688546472    1.0749099214
O        0.7180274603   -0.6634790585    0.4633178579
O       -0.8580316634    0.5111965683   -0.6716756801
H        1.1297518948   -2.6186811917    0.1202005079
H       -0.1238367332   -1.9405623292   -0.9604765243
H       -0.5191700359   -2.3302212805    0.7401983027
H       -2.4005997646    1.3747563767   -1.6633559483
H       -1.7621557678    2.3596685688   -0.3143912984
H       -2.7865501891    0.9310010361    0.0219829686
H       -1.0923030926   -0.1085191062    1.2722657790
H        0.4198130934    1.3519103465    2.0205065910
14   
torsion grid (-60,)
C        0.2683136267   -1.9463156444    0.0762388730
C       -2.0300112223    1.3496440975   -0.6537134000
C       -0.3323759363    0.2793459979    0.5910298669
O        0.1902498544    1.4723685373    1.1074211616
O        0.7037595145   -0.6480280947    0.4845253807
O       -0.8608688893    0.5301233057   -0.6731124650
H        1.1414402235   -2.5978438495    0.1403565768
H       -0.1079591997   -1.9298744048   -0.9512084352
H       -0.5170715996   -2.3292370903    0.7442879112
H       -2.4011897549    1.3815577114   -1.6795097600
H       -1.7960327879    2.3631235245   -0.3129602180
H       -2.8047247170    0.9176755284   -0.0034095681
H       -1.1291618993   -0.1181596937    1.2547779062
H        0.5677859326    1.2738698686    1.9797160029
14   
torsion grid (-45,)
C        0.2807290660   -1.9315349999    0.0856550840
C       -2.0410579341    1.3567995577   -0.6674141684
C       -0.3608694303    0.2846153540    0.5983140018
O        0.1394547107    1.4738559539    1.1470799296
O        0.6894449111   -0.6285098060    0.5075355828
O       -0.8671366177    0.5435905111   -0.6737546163
H        1.1652898064   -2.5672185333    0.1503245610
H       -0.0879521894   -1.9120978659   -0.9443891349
H       -0.5020927518   -2.3330762921    0.7451701184
H       -2.3996112828    1.3897102314   -1.6976912359
H       -1.8166976872    2.3707759297   -0.3213149578
H       -2.8215189019    0.9195626061   -0.0277330822
H       -1.1680697225   -0.1294277286    1.2382155380
H        0.6998557001    1.2276857317    1.9011538567
14   
torsion grid (-30,)
C        0.2827083740   -1.9297336384    0.0928355372
C       -2.0445939862    1.3581568708   -0.6696139157
C       -0.3912360582    0.2754793265    0.6214255255
O        0.0949791177    1.4567985033    1.2022765100
O        0.6674059820   -0.6286940232    0.5435083246
O       -0.8741238100    0.5404422242   -0.6608324157
H        1.1721809003   -2.5570335707    0.1699983536
H       -0.0609005816   -1.8976037973   -0.9453293875
H       -0.5113788223   -2.3473577743    0.7277613788
H       -2.3865914808    1.3982042665   -1.7052678206
H       -1.8213568756    2.3697028483   -0.3149774310
H       -2.8372181927    0.9215667801   -0.0446180581
H       -1.2106703507   -0.1451575582    1.2389091623
H        0.8158762478    1.1997764970    1.8000777815
14   
torsion grid (-15,)
C        0.2898846255   -1.9233219632    0.0954498949
C       -2.0422355916    1.3602310232   -0.6721696194
C       -0.4179213483    0.2679790597    0.6492309409
O        0.0519020184    1.4422287889    1.2577109715
O        0.6481948014   -0.6265748378    0.5802072669
O       -0.8803618780    0.5315482529   -0.6452585981
H        1.1857807281   -2.5403819302    0.1798139506
H       -0.0321971206   -1.8741586698   -0.9486880118
H       -0.5114978448   -2.3619676904    0.7059550602
H       -2.3654915608    1.4083332369   -1.7135366907
H       -1.8156972459    2.3682183157   -0.3090400627
H       -2.8507615891    0.9293993172   -0.0635487695
H       -1.2473171849   -0.1543590080    1.2491795976
H        0.9020761833    1.2203871714    1.6713196102
14   
torsion grid (0,)
C        0.2935338104   -1.9037254834    0.0923947220
C       -2.0429188228    1.3625899893   -0.6772664215
C       -0.4410613258    0.2740698682    0.6771998880
O        0.0168128755    1.4426311540    1.3024046225
O        0.6288087594   -0.6158409120    0.6167130013
O       -0.8863557254    0.5281670698   -0.6295682504
H        1.1898497622   -2.5176494615    0.1936437642
H        0.0044913704   -1.8341751563   -0.9599960896
H       -0.5241955208   -2.3583347459    0.6681092268
H       -2.3411774343    1.4211679328   -1.7255425204
H       -1.8204472781    2.3664771533   -0.3001939184
H       -2.8681151408    0.9309891085   -0.0918685664
H       -1.2781469169   -0.1402389196    1.2689054666
H        0.9531815677    1.2941598987    1.5143675704
14   
torsion grid (15,)
C        0.2885614232   -1.8985347523    0.0850923729
C       -2.0347080881    1.3577875844   -0.6753024120
C       -0.4526058929    0.2689993716    0.7067655268
O       -0.0011490078    1.4258919295    1.3507795478
O        0.6129683000   -0.6255539756    0.6516671352
O       -0.8789239871    0.5240201779   -0.6109972419
H        1.1778416465   -2.5198704976    0.2024740702
H        0.0343765793   -1.8035725948   -0.9741398851
H       -0.5498500319   -2.3614553463    0.6230220690
H       -2.3086650934    1.4300511565   -1.7294098004
H       -1.8233783325    2.3570987203   -0.2797363190
H       -2.8732547586    0.9181467343   -0.1153889906
H       -1.2995773133   -0.1326316955    1.2901092959
H        0.9697347812    1.3749708205    1.3587995089
14   
torsion grid (30,)
C        0.2801849607   -1.8995983033    0.0786180802
C       -2.0204508475    1.3540316328   -0.6698639096
C       -0.4511956462    0.2627037397    0.7289381631
O       -0.0060947721    1.4050588471    1.3955764572
O        0.6066240208   -0.6410764260    0.6753175729
O       -0.8582269033    0.5300387696   -0.5952210775
H        1.1588073327   -2.5340973105    0.2061958423
H        0.0513716928   -1.7848344721   -0.9844943538
H       -0.5759151264   -2.3617438907    0.5888932769
H       -2.2700833915    1.4457815312   -1.7285065902
H       -1.8298699346    2.3470029293   -0.2483886548
H       -2.8674482928    0.8947126507   -0.1395242287
H       -1.3065662097   -0.1308253227    1.3033965758
H        0.9468888146    1.4760885578    1.2121123480
14   
torsion grid (45,)
C        0.2693005369   -1.9054990261    0.0740014271
C       -2.0015794515    1.3523405147   -0.6618423875
C       -0.4380472171    0.2568442610    0.7435845765
O        0.0023565584    1.3839970861    1.4335704813
O        0.6091557687   -0.6596306172    0.6884781255
O       -0.8272204843    0.5454191095   -0.5824540422
H        1.1350026292   -2.5567239332    0.2063081602
H        0.0561266252   -1.7773818524   -0.9910435251
H       -0.6012768386   -2.3591676127    0.5677721422
H       -2.2280963443    1.4686429657   -1.7232290317
H       -1.8391314301    2.3366683947   -0.2092155497
H       -2.8520346889    0.8645586197   -0.1640179844
H       -1.3002896388   -0.1335819232    1.3086796323
H        0.8861586969    1.5943845146    1.0832734402
14   
torsion grid (60,)
C        0.2562038931   -1.9136864506    0.0710464327
C       -1.9790830382    1.3518425960   -0.6521393306
C       -0.4110735201    0.2545277507    0.7501692872
O        0.0305737743    1.3649343185    1.4639946731
O        0.6218293300   -0.6784386866    0.6904792409
O       -0.7843822450    0.5738788843   -0.5731547370
H        1.1056516194   -2.5857747937    0.2048841496
H        0.0506246639   -1.7790644296   -0.9950356644
H       -0.6271336225   -2.3496487359    0.5589988603
H       -2.1845612262    1.4991712307   -1.7138987062
H       -1.8558225630    2.3242156960   -0.1623341372
H       -2.8259233602    0.8238615108   -0.1914056303
H       -1.2798265836   -0.1370063982    1.3042166946
H        0.7981587916    1.7189342348    0.9804540858
14   
torsion grid (75,)
C        0.2322302498   -1.9300802653    0.0765705930
C       -1.9637521499    1.3385881938   -0.6436012892
C       -0.3850791342    0.2480789803    0.7554971545
O        0.0662839437    1.3412773666    1.4909419642
O        0.6297970137   -0.7039827902    0.6926186726
O       -0.7421795316    0.6023463957   -0.5630543792
H        1.0663425211   -2.6220701113    0.2052047728
H        0.0235310077   -1.7922140547   -0.9888776133
H       -0.6583994918   -2.3462355059    0.5694452524
H       -2.1478639773    1.5201353056   -1.7039056761
H       -1.8917551562    2.2957633826   -0.1143626778
H       -2.8004758314    0.7617399957   -0.2259724541
H       -1.2628460383   -0.1448971237    1.2948193382
H        0.6792566464    1.8307472998    0.9145892876
14   
torsion grid (90,)
C        0.2032725880   -1.9450649605    0.0832805071
C       -1.9493786438    1.3180812751   -0.6404980141
C       -0.3506868966    0.2472510878    0.7551618361
O        0.1260182769    1.3208472580    1.5072359655
O        0.6407607030   -0.7277338986    0.6879474772
O       -0.6957353306    0.6372006156   -0.5565238086
H        1.0209681789   -2.6580020748    0.2019957152
H       -0.0169463445   -1.8062575235   -0.9801125178
H       -0.6907587787   -2.3372436632    0.5900960703
H       -2.1128863214    1.5389502331   -1.6966327227
H       -1.9404696438    2.2541160301   -0.0691195080
H       -2.7677894706    0.6841184408   -0.2734276006
H       -1.2392913341   -0.1424141395    1.2803496647
H        0.5562178648    1.9292861238    0.8823980302
14   
torsion grid (105,)
C        0.1625310282   -1.9677186771    0.1065715753
C       -1.9201061639    1.2866158002   -0.6460379121
C       -0.3060101474    0.2454843503    0.7607787082
O        0.2177010227    1.2945868706    1.5211511089
O        0.6502747430   -0.7621660415    0.6948361632
O       -0.6359790259    0.6671499079   -0.5460185296
H        0.9626071928   -2.7031843310    0.2052623896
H       -0.0809193343   -1.8253729655   -0.9516093452
H       -0.7285989764   -2.3338543731    0.6377126211
H       -2.0553985889    1.5532336468   -1.6955128885
H       -1.9841481372    2.1934172926   -0.0312788500
H       -2.7170941932    0.5944403241   -0.3434912242
H       -1.2114087381   -0.1248330893    1.2728842654
H        0.4574956015    1.9988256186    0.8968917072
14   
torsion grid (120,)
C        0.1286822185   -1.9546644944    0.0963682290
C       -1.9128070956    1.2569180735   -0.6544583651
C       -0.2600409359    0.2682302707    0.7542888525
O        0.3212032115    1.2864975661    1.5179318117
O        0.6644082937   -0.7644331796    0.6725678094
O       -0.5919227477    0.7240835443   -0.5425760837
H        0.9117430127   -2.7109388674    0.1696223679
H       -0.1399094856   -1.8022642041   -0.9546409326
H       -0.7564521924   -2.2996112206    0.6512074178
H       -2.0452683114    1.5417238943   -1.6995762180
H       -2.0531406056    2.1430375795   -0.0210524369
H       -2.6680639508    0.5062528096   -0.3869863101
H       -1.1757845812   -0.0855862645    1.2621882975
H        0.3604789875    2.0747083818    0.9537699387
14   
torsion grid (135,)
C        0.0666748363   -1.8723158684    0.2313715222
C       -1.8415960253    1.2802714205   -0.5828682081
C       -0.1749670683    0.3722256262    0.8745375843
O        0.4982679859    1.3462999568    1.6200421374
O        0.6810248127   -0.7168752987    0.7971582127
O       -0.4890831893    0.8516954119   -0.4204956791
H        0.8059267108   -2.6727362310    0.2881316890
H       -0.2110473231   -1.7026095412   -0.8150079580
H       -0.8264761225   -2.1676568401    0.8018687207
H       -1.9368163473    1.6195481293   -1.6157923205
H       -2.0939862017    2.1121360540    0.0891157019
H       -2.5464827190    0.4568502117   -0.4087028961
H       -1.1110915559    0.0803528607    1.3864209823
H        0.3799542593    2.1890526442    1.1554103484
14   
torsion grid (150,)
C       -0.1020983610   -1.7958469885    0.1936163316
C       -1.8430819232    1.0713174801   -0.6007054436
C       -0.0945345983    0.4405645501    0.9274731281
O        0.7447988000    1.3120507928    1.6196745074
O        0.6368290856   -0.7335470796    0.7860014161
O       -0.4435049974    1.0194070373   -0.3211420386
H        0.5343927127   -2.6806297188    0.2442943313
H       -0.3385941231   -1.5802557001   -0.8551306768
H       -1.0341070246   -1.9941797708    0.7442292836
H       -1.9467218461    1.5973327090   -1.5515672254
H       -2.3921456295    1.6241839545    0.1734364868
H       -2.2793429185    0.0694917577   -0.6995723204
H       -1.0229942979    0.2375371088    1.4950441671
H        0.5111253146    2.2074019699    1.3291144665
14   
torsion grid (165,)
C        0.0492026378   -2.0592239422    0.1777929540
C       -1.8216283223    1.3207851537   -0.6087307018
C       -0.2248568269    0.1957651351    0.7669466390
O        0.4811006834    1.1891962125    1.4584848482
O        0.6488640888   -0.8688509031    0.6860597169
O       -0.5974971639    0.5999547422   -0.5397003654
H        0.8152688529   -2.8339159999    0.2351183879
H       -0.2695888591   -1.9305970439   -0.8617537054
H       -0.8136444588   -2.3606889442    0.7894159638
H       -2.0707227884    1.4201351164   -1.6667622249
H       -1.7355581728    2.3306041085   -0.1788454505
H       -2.6351439053    0.7875251448   -0.0966906461
H       -1.1457293212   -0.0869478110    1.3160707457
H        0.0142995959    2.0304322092    1.3378238238
14   
torsion grid (180,)
C        0.0919921822   -2.0620721750    0.1703258297
C       -1.8155054139    1.3704134140   -0.6112194116
C       -0.2485390364    0.1898241472    0.7437567125
O        0.4482602156    1.2234555896    1.3839389189
O        0.6552374886   -0.8478293807    0.6644938934
O       -0.6712148038    0.5301351434   -0.5657230940
H        0.8776981111   -2.8148719016    0.2504679614
H       -0.2191313517   -1.9600853382   -0.8740454124
H       -0.7694471284   -2.3748199072    0.7781084999
H       -2.1511694192    1.3956570773   -1.6495685165
H       -1.5840248283    2.3999814899   -0.2993894685
H       -2.6303864328    0.9804189538    0.0170372149
H       -1.1458266104   -0.0990442041    1.3288770988
H       -0.1454346778    1.9855281837    1.4667693556
