15   
torsion grid (-165,)
C       -2.2825893100    1.9845705071    0.5167185732
C        1.7643805496   -0.5850304343    0.0340089599
C       -1.6723574538    0.5842033817    0.5047408486
N        0.3062673094   -0.6641465622    0.0647148712
N       -0.2609867606    0.6478198520    0.1196540455
H       -3.3280602042    1.9443991552    0.8386356325
H       -1.7327858162    2.6386295966    1.2003662096
H       -2.2611615462    2.4406421732   -0.4808046703
H        2.1676001449   -1.6002592301   -0.0452513361
H        2.1635062563    0.0145675203   -0.8034816045
H        2.1141322470   -0.1385221747    0.9682413032
H       -1.7151726487    0.1370583706    1.5022577266
H       -2.2581955212   -0.0719647665   -0.1655365269
H       -0.0239300810   -1.1628141393   -0.7677108762
H       -0.1858909371    1.1097290502   -0.7939377113
15   
torsion grid (-150,)
C       -2.2676217281    1.9847893281    0.5390693660
C        1.7454972805   -0.5863043958    0.0925443304
C       -1.6560305210    0.5850699654    0.5104113519
N        0.2959913551   -0.6601527052   -0.0764486246
N       -0.2920006203    0.6398101544   -0.0216040902
H       -3.2737613338    1.9551043632    0.9693257717
H       -1.6522385249    2.6629174454    1.1384162756
H       -2.3526516701    2.4064489385   -0.4702784097
H        2.1557818732   -1.6003089040    0.0274760201
H        2.2545212387    0.0462000392   -0.6549783767
H        1.9640960891   -0.1825126949    1.0842406376
H       -1.5902192953    0.1737116256    1.5218586487
H       -2.3049785268   -0.0952109698   -0.0697905184
H        0.0656803779   -1.1329929455   -0.9529215714
H       -0.2973097661    1.0823130552   -0.9447053661
15   
torsion grid (-135,)
C       -2.2455795289    1.9820464467    0.5572051297
C        1.7053343813   -0.5881764588    0.1512879428
C       -1.6225542841    0.5877142780    0.5165843740
N        0.2907446468   -0.6551830287   -0.2125230394
N       -0.3208876811    0.6363542896   -0.1566163513
H       -3.2015843519    1.9600195195    1.0900954170
H       -1.5803179836    2.6885776169    1.0633369498
H       -2.4399704605    2.3639054642   -0.4529586704
H        2.1289753817   -1.5971056305    0.0873830278
H        2.3019384059    0.0881738117   -0.4831448810
H        1.7866826186   -0.2430109632    1.1851579877
H       -1.4457877911    0.2190664550    1.5313595572
H       -2.3165495234   -0.1230556063    0.0354365061
H        0.1731585613   -1.0810779555   -1.1311008818
H       -0.4188461630    1.0406340612   -1.0888876232
15   
torsion grid (-120,)
C       -2.2188024633    1.9774296163    0.5687106116
C        1.6380103138   -0.5988079639    0.2111348628
C       -1.5625712714    0.5985972772    0.5274988075
N        0.2841949337   -0.6553314459   -0.3446971048
N       -0.3393341776    0.6467043873   -0.2839597206
H       -3.1130512227    1.9584550082    1.1999284327
H       -1.5261183714    2.7250558646    0.9675630554
H       -2.5285670316    2.3031787497   -0.4323179316
H        2.0909876460   -1.5931036710    0.1235487653
H        2.2905820726    0.1416459588   -0.2778117588
H        1.5739429913   -0.3459968449    1.2730540701
H       -1.2692513685    0.2906732288    1.5360674317
H       -2.2754527498   -0.1571865992    0.1585934025
H        0.3168032427   -0.9770282385   -1.3095377279
H       -0.5666163158    0.9645969723   -1.2251597509
15   
torsion grid (-105,)
C       -2.1874525173    1.9695194679    0.5759940409
C        1.5448303861   -0.6172615694    0.2662780032
C       -1.4795407629    0.6167162455    0.5362301436
N        0.2790813843   -0.6540082507   -0.4766421730
N       -0.3505802476    0.6671897183   -0.4070281987
H       -3.0072193048    1.9528312959    1.3014103252
H       -1.4900945424    2.7649728547    0.8561227384
H       -2.6162698484    2.2242851557   -0.4013073102
H        2.0398137120   -1.5882344493    0.1539639090
H        2.2233095649    0.1846268668   -0.0612939291
H        1.3326831618   -0.4713077671    1.3295102432
H       -1.0715523560    0.3825547619    1.5252741349
H       -2.1858759290   -0.1893818097    0.2832481864
H        0.4982189274   -0.8220730146   -1.4569170230
H       -0.7345954001    0.8584527936   -1.3322276455
15   
torsion grid (-90,)
C       -2.1745561981    1.9586526640    0.5603316356
C        1.4466592536   -0.6624330710    0.3037226996
C       -1.3769676783    0.6560720628    0.5617697414
N        0.2867352826   -0.6297353773   -0.5979806392
N       -0.3549899621    0.6940480132   -0.4983562500
H       -2.9168714803    1.9545791351    1.3648699196
H       -1.5140736486    2.8197042561    0.7008984634
H       -2.7129052684    2.0951722473   -0.3858262473
H        2.0096708590   -1.5799852526    0.1036545196
H        2.1070489199    0.2103683519    0.1905983088
H        1.1063653100   -0.7059105700    1.3424600285
H       -0.8642308617    0.5452955301    1.5231604755
H       -2.0419267958   -0.2141662272    0.4475037740
H        0.6594816175   -0.6582166226   -1.5467882991
H       -0.8646831212    0.7954371599   -1.3774026854
15   
torsion grid (-75,)
C       -2.1747246229    1.9376125852    0.5416197336
C        1.3419672559   -0.7231164148    0.3274364688
C       -1.2618538134    0.7135888468    0.5856758396
N        0.3077855751   -0.5854268500   -0.7064487370
N       -0.3502905309    0.7308418491   -0.5698172861
H       -2.8228607129    1.9641412102    1.4232446466
H       -1.5862764618    2.8600060484    0.5163438219
H       -2.8208817706    1.9214705806   -0.3446716980
H        1.9765752669   -1.5738104953    0.0602087955
H        1.9652432660    0.1784308464    0.4364576315
H        0.8819816902   -0.9490478017    1.2934948330
H       -0.6619127049    0.7460615406    1.5009836096
H       -1.8547420913   -0.2152160197    0.6139360851
H        0.8075927120   -0.5002606359   -1.5919788143
H       -0.9528468294    0.7736070101   -1.3938694847
15   
torsion grid (-60,)
C       -2.1652718540    1.9179266720    0.5413779770
C        1.2555988743   -0.7557580221    0.3427427740
C       -1.1784660177    0.7522096226    0.5861334953
N        0.3532889213   -0.5376003933   -0.7927793345
N       -0.3739719456    0.7432561115   -0.6437411034
H       -2.7388243842    1.9696992693    1.4721759600
H       -1.6373611049    2.8668935712    0.4056048432
H       -2.8796559136    1.8042411382   -0.2830201850
H        1.9428208772   -1.5623515829    0.0694822209
H        1.8429462512    0.1367519369    0.6153955724
H        0.6937821808   -1.0875482655    1.2195848826
H       -0.5100250044    0.8815465399    1.4426946616
H       -1.7180913752   -0.1999478040    0.7281601793
H        0.9528701452   -0.3582948873   -1.5982873582
H       -1.0448834223    0.7078583934   -1.4129091403
15   
torsion grid (-45,)
C       -2.1589143248    1.9103288279    0.5412192691
C        1.2007812845   -0.7849716581    0.3458271447
C       -1.1292622310    0.7814243159    0.5833495150
N        0.4172471354   -0.4811887216   -0.8545636913
N       -0.4171578323    0.7337913248   -0.6997985807
H       -2.6693229149    1.9983296103    1.5055483356
H       -1.6755459799    2.8652018199    0.3133987156
H       -2.9228420805    1.7242170823   -0.2232524317
H        1.9196870947   -1.5635489351    0.0722691361
H        1.7582402186    0.0757161505    0.7526271777
H        0.5615057973   -1.1920686648    1.1325484191
H       -0.4103752588    0.9811873588    1.3827809956
H       -1.6324549658   -0.1722514067    0.8210634299
H        1.0879748928   -0.1970720957   -1.5675989402
H       -1.1348046072    0.5997872914   -1.4128030497
15   
torsion grid (-30,)
C       -2.1583645652    1.9139224836    0.5345383365
C        1.1663584600   -0.8239083451    0.3361013715
C       -1.0945033871    0.8169131165    0.5856700662
N        0.4782496831   -0.4210297674   -0.8926657533
N       -0.4633968624    0.7092738240   -0.7353666142
H       -2.6281549479    2.0367108990    1.5157358895
H       -1.7147168389    2.8681556886    0.2353952544
H       -2.9493209838    1.6667901791   -0.1837627996
H        1.9142159226   -1.5701909686    0.0493570899
H        1.6848260839   -0.0078759428    0.8665915605
H        0.4741139970   -1.3065185353    1.0297638158
H       -0.3356720946    1.0868839929    1.3251545517
H       -1.5596678091   -0.1265872783    0.9199932727
H        1.1924243425   -0.0349381343   -1.5078454632
H       -1.2116347718    0.4712810879   -1.3860451334
15   
torsion grid (-15,)
C       -2.1716670305    1.9104720816    0.5204704683
C        1.1251351819   -0.8874925067    0.3150623271
C       -1.0429325794    0.8816673772    0.5952891120
N        0.5298409880   -0.3549737409   -0.9138226795
N       -0.4823794527    0.7009445647   -0.7503954946
H       -2.5953517534    2.0867341301    1.5144476287
H       -1.8028451146    2.8601253395    0.1218567967
H       -2.9832458240    1.5615852830   -0.1294877226
H        1.9242904577   -1.5695612111    0.0070348542
H        1.5641034798   -0.1348924048    0.9891552186
H        0.3966043850   -1.4759870698    0.8787211062
H       -0.2613600798    1.2554151106    1.2635466743
H       -1.4326270564   -0.0509796239    1.0356731857
H        1.2795983354    0.1146469842   -1.4178942844
H       -1.2524077087    0.3811779860   -1.3370417458
15   
torsion grid (0,)
C       -2.1844294341    1.8953767069    0.5113769050
C        1.0673302889   -0.9565716634    0.2888618227
C       -0.9750351002    0.9646610645    0.5996428791
N        0.5739100755   -0.2914154075   -0.9220563997
N       -0.4825549668    0.7022704767   -0.7605278122
H       -2.5623532092    2.1294309216    1.5117864005
H       -1.9173985381    2.8301201981    0.0096319920
H       -3.0020905126    1.4292548336   -0.0518720693
H        1.9322517583   -1.5564866194   -0.0119981177
H        1.3852471559   -0.2835114656    1.0993695790
H        0.3161455410   -1.6462934050    0.6859883785
H       -0.1844079128    1.4571314457    1.1764402971
H       -1.2577443574    0.0517702316    1.1472825226
H        1.3548842669    0.2354250776   -1.3081773064
H       -1.2689988274    0.3177199045   -1.2831336259
15   
torsion grid (15,)
C       -2.1881504418    1.8891323073    0.5077951150
C        1.0286370324   -1.0011365493    0.2620172746
C       -0.9348558830    1.0185667092    0.5937054554
N        0.6207113970   -0.2261004418   -0.9146251564
N       -0.4973923988    0.6779877745   -0.7675293161
H       -2.5254449871    2.1782733613    1.5083679114
H       -1.9906709554    2.7957966700   -0.0716249529
H       -3.0112498323    1.3496637636    0.0233999474
H        1.9315078137   -1.5542502163   -0.0164922103
H        1.2539411337   -0.4085584053    1.1614962744
H        0.2591965695   -1.7374125222    0.5184114365
H       -0.1341230375    1.5818851731    1.0879449902
H       -1.1448599578    0.1374345519    1.2204722907
H        1.4059061996    0.3611747852   -1.1881758259
H       -1.2783964241    0.2164253387   -1.2325477891
15   
torsion grid (30,)
C       -2.2338408027    1.8666354277    0.3687485085
C        1.1531397331   -0.7497853847   -0.4180157250
C       -1.2620814109    0.7300386401    0.0530912695
N        0.8275248048   -0.2859940905    0.9343542431
N       -0.1925431264    0.7141492441    1.0601672704
H       -3.0524960282    1.8882086748   -0.3579332118
H       -2.6561510243    1.7474238715    1.3708378327
H       -1.7289998985    2.8395321707    0.3276865131
H        1.9348465997   -1.5109337975   -0.3250393350
H        0.3144276435   -1.1863131366   -0.9819512050
H        1.5659999176    0.0789528679   -1.0041654621
H       -1.7898834086   -0.2306844742    0.1020393839
H       -0.8925728129    0.8417606201   -0.9791528565
H        0.5213538490   -1.0776977495    1.4954692070
H        0.2860321930    1.6135894160    1.0464790121
15   
torsion grid (45,)
C       -2.2384976101    1.8796104923    0.3790170968
C        1.2154257821   -0.7221756687   -0.4093622255
C       -1.3073692231    0.7045423957    0.0831689082
N        0.7662846553   -0.3418009506    0.9338859020
N       -0.1765804539    0.7256081422    1.0212422290
H       -3.1030487218    1.8678265905   -0.2927342793
H       -2.5948987630    1.8390242606    1.4125356111
H       -1.7220902284    2.8366870400    0.2365999408
H        1.9618778127   -1.5163509778   -0.3026476249
H        0.4261348692   -1.0812818692   -1.0885812667
H        1.7075296516    0.1362853803   -0.8803171632
H       -1.8428326837   -0.2415543701    0.2324971631
H       -1.0029900341    0.7371785552   -0.9761532627
H        0.3605299412   -1.1394665560    1.4165838758
H        0.3452812341    1.5947498354    0.9268805407
15   
torsion grid (60,)
C       -2.2392527732    1.8991423127    0.3816079514
C        1.2967277022   -0.6801345425   -0.4005307215
C       -1.3748682821    0.6638117434    0.1325633033
N        0.7085037255   -0.3999668777    0.9129329431
N       -0.1792071356    0.7140550272    0.9850658012
H       -3.1586896938    1.8547762589   -0.2110985387
H       -2.5060034265    1.9750858148    1.4399751322
H       -1.7076026911    2.8159385352    0.0992948875
H        1.9801117685   -1.5295070833   -0.2956003997
H        0.5792754028   -0.9131688376   -1.2042062189
H        1.8905368079    0.1861831985   -0.7129117790
H       -1.9316994524   -0.2403271218    0.4087309334
H       -1.1498899753    0.5854596335   -0.9447878182
H        0.2189141929   -1.2065706093    1.2895369520
H        0.3679000584    1.5541048476    0.8120430170
15   
torsion grid (75,)
C       -2.2249980263    1.9145495659    0.3582945125
C        1.3771835021   -0.6101483824   -0.3884759186
C       -1.4508737250    0.6041927482    0.2227680623
N        0.6583325894   -0.4696625636    0.8816005410
N       -0.1917333497    0.6839662368    0.9762643169
H       -3.1951064520    1.8450627384   -0.1439622065
H       -2.3927469098    2.1536403205    1.4128083256
H       -1.6750355172    2.7474556118   -0.0963054925
H        1.9434426427   -1.5473173291   -0.3653904624
H        0.7450450047   -0.6103880661   -1.2925276478
H        2.1008557112    0.2080139423   -0.4755215147
H       -2.0369418188   -0.2136782891    0.6602313210
H       -1.3114436131    0.3653318797   -0.8461988096
H        0.0877368756   -1.2837860455    1.0899650488
H        0.3610393143    1.4916499320    0.6990653690
15   
torsion grid (90,)
C       -2.2271497337    1.9179463576    0.3500561356
C        1.4528761533   -0.5643117049   -0.3554521104
C       -1.5042657991    0.5728005491    0.3051697559
N        0.6091354914   -0.5308806390    0.8420241056
N       -0.1877471150    0.6802033794    0.9474516658
H       -3.2363453791    1.8285624741   -0.0641658958
H       -2.3028741694    2.2770515341    1.3807970802
H       -1.6924357076    2.6747405156   -0.2364963615
H        1.9367606377   -1.5447617109   -0.4181430508
H        0.9193308980   -0.3768813373   -1.3046332735
H        2.2459731202    0.1846519156   -0.2520086226
H       -2.0826619990   -0.1681773992    0.8711152668
H       -1.4480513372    0.2115350760   -0.7385768758
H       -0.0422255582   -1.3117404163    0.8463222878
H        0.3544367257    1.4281437059    0.5191553377
15   
torsion grid (105,)
C       -2.2483033245    1.9281555124    0.3731889292
C        1.5348594856   -0.5581421376   -0.3057070574
C       -1.5488921084    0.5702990434    0.3548194225
N        0.5569883806   -0.5733651309    0.7841486539
N       -0.1801664613    0.6939371928    0.8713525620
H       -3.2889030081    1.8300090851    0.0481592322
H       -2.2353194107    2.3502928936    1.3822395619
H       -1.7541826806    2.6384762330   -0.3004438998
H        1.9877906274   -1.5517185957   -0.3852369121
H        1.1172624463   -0.2816143358   -1.2917242817
H        2.3357618465    0.1478882878   -0.0599087718
H       -2.0872075592   -0.1233825013    1.0125363590
H       -1.5812817499    0.1420999631   -0.6655303834
H       -0.1346745606   -1.2964211341    0.5895914982
H        0.3210243052    1.3623679240    0.2851305322
15   
torsion grid (120,)
C       -2.2653107535    1.9425567853    0.4002425847
C        1.6084935860   -0.5611783229   -0.2518441973
C       -1.5902933533    0.5727154685    0.3962563829
N        0.5011044190   -0.6069157962    0.7042679071
N       -0.1776483408    0.6973526850    0.7740132975
H       -3.3297198296    1.8468486845    0.1634969692
H       -2.1666340929    2.4141185343    1.3820912019
H       -1.8163883070    2.6095323986   -0.3454310112
H        2.0400606679   -1.5632503572   -0.3364124695
H        1.3187385065   -0.2141204958   -1.2616776953
H        2.3891507222    0.1059072802    0.1294869024
H       -2.0752881451   -0.0767723459    1.1351482201
H       -1.7177493995    0.0900529552   -0.5925006466
H       -0.1817389697   -1.2709286389    0.3314608918
H        0.2579795180    1.2929634651    0.0640171072
15   
torsion grid (135,)
C       -2.2773735302    1.9553220842    0.4247370039
C        1.6690882146   -0.5648868034   -0.1967950674
C       -1.6250655805    0.5748923576    0.4321613828
N        0.4459086253   -0.6316536413    0.6026790673
N       -0.1813020871    0.6907304818    0.6618352889
H       -3.3593726444    1.8671728607    0.2843804560
H       -2.0890851302    2.4726788153    1.3696720326
H       -1.8853312478    2.5773577350   -0.3887951726
H        2.0846684604   -1.5727497076   -0.2871857774
H        1.5155447682   -0.1524700738   -1.2122448389
H        2.4058528664    0.0608989531    0.3175119804
H       -2.0440262728   -0.0299813285    1.2449264398
H       -1.8511380962    0.0437979740   -0.5136696144
H       -0.1948210800   -1.2442809347    0.0858672147
H        0.1812089625    1.2320535272   -0.1324649508
15   
torsion grid (150,)
C       -2.2850463486    1.9656494189    0.4454389478
C        1.7157052905   -0.5689958536   -0.1407715314
C       -1.6518926602    0.5764850738    0.4626517845
N        0.3958767467   -0.6498247168    0.4818476961
N       -0.1923747172    0.6783624452    0.5397704071
H       -3.3765833911    1.8887668057    0.4176977277
H       -1.9982254987    2.5285921358    1.3382367499
H       -1.9692839697    2.5382923417   -0.4348929859
H        2.1173443488   -1.5810529650   -0.2448169584
H        1.7058852168   -0.0891257468   -1.1380229113
H        2.3876468467    0.0043305352    0.5053839775
H       -1.9931241336    0.0177179103    1.3412231366
H       -1.9766135310    0.0027770434   -0.4281046370
H       -0.1845488174   -1.2198635630   -0.1468331068
H        0.0999908461    1.1867714350   -0.3061928514
15   
torsion grid (165,)
C       -2.2896182779    1.9739673754    0.4670094728
C        1.7476684646   -0.5748861620   -0.0835238247
C       -1.6688226876    0.5790477326    0.4850095386
N        0.3548405996   -0.6612381090    0.3480442780
N       -0.2092963716    0.6664380675    0.4072746822
H       -3.3786214705    1.9097181486    0.5568825762
H       -1.9070579047    2.5750750353    1.2970480415
H       -2.0640975889    2.5011498605   -0.4679147283
H        2.1446033434   -1.5884802675   -0.1930302916
H        1.8813582612   -0.0407363407   -1.0431734779
H        2.3300044594   -0.0515324883    0.6801976099
H       -1.9191259741    0.0626625293    1.4175493544
H       -2.0886745886   -0.0289118764   -0.3404147835
H       -0.1520284575   -1.1989897668   -0.3672595891
H        0.0136244212    1.1555985613   -0.4710834135
15   
torsion grid (180,)
C       -2.2897714896    1.9804763298    0.4916277940
C        1.7645040141   -0.5810905218   -0.0251442412
C       -1.6758640416    0.5820505839    0.4979331553
N        0.3252276548   -0.6652244566    0.2072783076
N       -0.2325135087    0.6569069425    0.2650793255
H       -3.3633808622    1.9286550875    0.6986359307
H       -1.8189850451    2.6104692838    1.2522461204
H       -2.1633005846    2.4700620365   -0.4817608578
H        2.1633182367   -1.5957013888   -0.1233013309
H        2.0365227453   -0.0104723310   -0.9322192594
H        2.2369794597   -0.0981264019    0.8342990171
H       -1.8248109069    0.1018558603    1.4699582393
H       -2.1839005601   -0.0520274387   -0.2538799512
H       -0.0977016079   -1.1814455177   -0.5736804236
H       -0.0815672756    1.1324942321   -0.6344563807
