27   
torsion grid (-165,)
C       -0.7307128713   -0.7073543985    4.7088610641
C        0.1564446471   -1.2226158867   -0.0777023957
C        2.1926463527   -0.6920708819    1.3071070391
C       -0.5918693685   -1.6525176412    1.1918320184
C        1.4443119260   -1.1225196317    2.5773322527
C        1.6767647026   -1.4129004669    0.0512197500
C       -0.0599047224   -0.9056549571    2.4099345875
C       -1.4590241283   -1.4200020626    5.8246212416
C        2.4116095388   -0.9472379367   -1.2097473135
O       -0.1592089515    0.3616994320    4.8197818541
O       -0.7944218279   -1.4203751784    3.5601027317
H       -0.2215260286   -1.7882661539   -0.9374935804
H       -0.0535693634   -0.1637609424   -0.2861351795
H        2.0803290643    0.3926545673    1.1686667248
H        3.2658450340   -0.8774429207    1.4327367959
H       -1.6673002752   -1.4708956190    1.0883916172
H       -0.4614559590   -2.7291276168    1.3574511855
H        1.6202657464   -2.1887402154    2.7709121168
H        1.8062467602   -0.5622214641    3.4427116792
H        1.8674119427   -2.4887208987    0.1823646676
H       -0.2713876533    0.1655802733    2.3301630197
H       -2.4344479588   -1.7758792887    5.4836227906
H       -1.5737244590   -0.7464730735    6.6738049855
H       -0.8782113155   -2.2954120657    6.1330379509
H        3.4915400880   -1.1128358221   -1.1250618109
H        2.2516729176    0.1241453899   -1.3818226724
H        2.0583921387   -1.4834850529   -2.0978472803
27   
torsion grid (-150,)
C       -0.7985725312   -0.6832856655    4.6907643024
C        0.1548711054   -1.2128339767   -0.0444059271
C        2.2360536173   -0.7135139526    1.2890928445
C       -0.5578699070   -1.6769851843    1.2341782043
C        1.5288175799   -1.1761190961    2.5712027033
C        1.6785939946   -1.4068486910    0.0347983875
C        0.0211168946   -0.9680570561    2.4527938678
C       -1.5266880579   -1.3830058869    5.8147329113
C        2.3748057850   -0.9138639684   -1.2377504874
O       -0.3954891411    0.4646547285    4.7267344192
O       -0.6536521951   -1.5079910054    3.6265510965
H       -0.2479308241   -1.7540837048   -0.9085850964
H       -0.0594259200   -0.1484594658   -0.2171854199
H        2.1168239889    0.3736639129    1.1791837811
H        3.3131259479   -0.8995955707    1.3737538668
H       -1.6340353871   -1.4819958259    1.1718513346
H       -0.4324488412   -2.7596921077    1.3606391229
H        1.7221122776   -2.2429006227    2.7422873259
H        1.9064826678   -0.6277833580    3.4396708246
H        1.8719648971   -2.4853808022    0.1363569707
H       -0.1961996811    0.1028350420    2.4060232937
H       -2.5126045333   -1.7121131726    5.4736520792
H       -1.6326210713   -0.7031936886    6.6597865805
H       -0.9717322520   -2.2749455370    6.1199822919
H        3.4567434490   -1.0810019084   -1.1896641461
H        2.2100949995    0.1609343093   -1.3816239617
H        1.9943791138   -1.4308682583   -2.1259753297
27   
torsion grid (-135,)
C       -0.9081187020   -0.6544739112    4.6604950306
C        0.1525771803   -1.1765008653   -0.0101959255
C        2.2837942769   -0.7485874115    1.2677829224
C       -0.5351370701   -1.6417198159    1.2816460699
C        1.6034351702   -1.2116202442    2.5640872933
C        1.6721702586   -1.4114932635    0.0221378585
C        0.0985573765   -0.9688693024    2.4943520195
C       -1.5644763114   -1.3946529187    5.8027956294
C        2.3443780859   -0.9200618214   -1.2638380369
O       -0.7380988784    0.5498061103    4.6157342869
O       -0.5326421303   -1.5186861686    3.6871605704
H       -0.2891112987   -1.6933279191   -0.8703049061
H       -0.0380669388   -0.1042953601   -0.1605762955
H        2.1874453604    0.3424111089    1.1744975969
H        3.3580745798   -0.9616019157    1.3175012826
H       -1.6065495923   -1.4148391354    1.2542576118
H       -0.4373539564   -2.7295849208    1.3873634612
H        1.7799771426   -2.2836382783    2.7189558730
H        2.0187396912   -0.6833721503    3.4290413484
H        1.8400818771   -2.4958643835    0.1048540053
H       -0.1002729827    0.1054235976    2.4755458674
H       -2.4526862882   -1.9222464130    5.4428330908
H       -1.8430700497   -0.6877970559    6.5839316198
H       -0.8784228614   -2.1459190217    6.2045550305
H        3.4225450943   -1.1154795107   -1.2490330364
H        2.2034829028    0.1603303551   -1.3898915424
H        1.9254640400   -1.4157698977   -2.1468428853
27   
torsion grid (-120,)
C       -1.0276404653   -0.6512484863    4.6093933706
C        0.1517737234   -1.1330833662    0.0252059869
C        2.3278078767   -0.7872325030    1.2500602798
C       -0.5142711175   -1.5922647011    1.3303575776
C        1.6680726586   -1.2450819967    2.5589439965
C        1.6634162564   -1.4156997535    0.0136776582
C        0.1707309095   -0.9532567135    2.5347195012
C       -1.5858236419   -1.4065097598    5.7933562530
C        2.3166835394   -0.9296938892   -1.2841353940
O       -1.1077979797    0.5526108334    4.4504027576
O       -0.4248872272   -1.5035474617    3.7456739930
H       -0.3291036788   -1.6254006234   -0.8282249651
H       -0.0092503902   -0.0537848951   -0.1076039083
H        2.2630047114    0.3072880939    1.1710723281
H        3.3958885636   -1.0338663348    1.2687907297
H       -1.5787483706   -1.3330684478    1.3340393520
H       -0.4455475217   -2.6835572639    1.4229030512
H        1.8152469817   -2.3238886294    2.6958686211
H        2.1253875964   -0.7436878372    3.4190262314
H        1.7996193720   -2.5056501001    0.0796284912
H       -0.0012343030    0.1254077558    2.5358054689
H       -2.3247569110   -2.1377574724    5.4525856940
H       -2.0491441886   -0.7062606602    6.4879047810
H       -0.7863825163   -1.9591313951    6.2952633081
H        3.3881741003   -1.1588554066   -1.3006563646
H        2.2064940482    0.1559963202   -1.3940974940
H        1.8590039504   -1.4012058195   -2.1611154647
27   
torsion grid (-105,)
C       -1.1300632172   -0.6815020704    4.5395287478
C        0.1502949245   -1.0919474431    0.0658829980
C        2.3675082127   -0.8245357943    1.2361651458
C       -0.4918817937   -1.5479189394    1.3839220906
C        1.7296450560   -1.2809121909    2.5563440825
C        1.6526353313   -1.4156459875    0.0094714035
C        0.2429464176   -0.9411611980    2.5761919138
C       -1.6077031624   -1.4019073296    5.7790679826
C        2.2843895180   -0.9282853625   -1.2983738842
O       -1.4325412790    0.4572573193    4.2347322036
O       -0.3190365765   -1.4820900954    3.8070454728
H       -0.3670733703   -1.5609970867   -0.7792528951
H        0.0147738466   -0.0073013326   -0.0501752076
H        2.3332414382    0.2724732134    1.1732719145
H        3.4279205298   -1.1026530608    1.2229042816
H       -1.5479402930   -1.2591298945    1.4195739463
H       -0.4489173616   -2.6414955434    1.4645939807
H        1.8467065510   -2.3655920683    2.6740887406
H        2.2261916721   -0.8078067205    3.4106773958
H        1.7601767225   -2.5097734497    0.0561567246
H        0.1009954029    0.1419711965    2.5885488938
H       -2.1921176075   -2.2815747329    5.4929663079
H       -2.2210454248   -0.7298164200    6.3787011975
H       -0.7524694003   -1.7533199089    6.3631698089
H        3.3483825471   -1.1860740010   -1.3471248280
H        2.2009599095    0.1614943441   -1.3900264151
H        1.7907373826   -1.3741859559   -2.1692061628
27   
torsion grid (-90,)
C       -1.2079521719   -0.7383752301    4.4668073281
C        0.1481951577   -1.0462178837    0.1105986739
C        2.4035078357   -0.8572709031    1.2213668514
C       -0.4718924091   -1.4928285810    1.4423942535
C        1.7874078241   -1.3039727128    2.5551211264
C        1.6376051910   -1.4149810888    0.0098792546
C        0.3139944669   -0.9176376120    2.6181952418
C       -1.6349443776   -1.4027567174    5.7549663538
C        2.2485174258   -0.9354514450   -1.3107406376
O       -1.6874396472    0.2856992992    4.0163731881
O       -0.2144205237   -1.4405472510    3.8720120007
H       -0.4065688214   -1.4923704252   -0.7231173467
H        0.0420916724    0.0428741930    0.0062369051
H        2.4030025928    0.2408018264    1.1673096560
H        3.4537180529   -1.1689632933    1.1775090368
H       -1.5161959487   -1.1716574036    1.5084027965
H       -0.4569441416   -2.5878136643    1.5151917519
H        1.8727129680   -2.3927752519    2.6609455521
H        2.3222107294   -0.8552048275    3.3993489777
H        1.7127026250   -2.5122709698    0.0446957624
H        0.2056164538    0.1702370089    2.6361681292
H       -2.0296060193   -2.4009943965    5.5428436471
H       -2.4005814191   -0.7984065252    6.2408303307
H       -0.7745264264   -1.5253895187    6.4188662580
H        3.3023270846   -1.2253464235   -1.3908512771
H        2.1963964224    0.1571725844   -1.3911628695
H        1.7177813799   -1.3579833005   -2.1713451043
27   
torsion grid (-75,)
C       -1.2556842840   -0.7897206364    4.4135850202
C        0.1472186337   -1.0015408811    0.1537373584
C        2.4337164082   -0.8784196261    1.2056057457
C       -0.4573426265   -1.4199694549    1.5022175126
C        1.8363930651   -1.2963239844    2.5566848673
C        1.6205049710   -1.4193527814    0.0176967088
C        0.3785267702   -0.8641270360    2.6540139257
C       -1.6653663365   -1.4384890169    5.7153331961
C        2.2133507744   -0.9688201390   -1.3211405624
O       -1.8591008395    0.1118431226    3.8615693261
O       -0.1145274335   -1.3429363690    3.9402019509
H       -0.4430058665   -1.4327639431   -0.6633019158
H        0.0741741501    0.0899490074    0.0454220504
H        2.4672006108    0.2187085837    1.1431639396
H        3.4720010727   -1.2241862862    1.1388995929
H       -1.4872267448   -1.0652100129    1.5877099494
H       -0.4723854602   -2.5150795155    1.5803592646
H        1.8884727093   -2.3867201391    2.6676048455
H        2.4054290077   -0.8608788125    3.3852054479
H        1.6611576527   -2.5182387642    0.0590463698
H        0.3059834058    0.2286279408    2.6587224575
H       -1.8923624265   -2.4953572263    5.5451112333
H       -2.5439885376   -0.9323508063    6.1146054969
H       -0.8437667452   -1.3924696307    6.4356284247
H        3.2552854681   -1.2923519389   -1.4247052656
H        2.1935393963    0.1243101403   -1.4090405873
H        1.6485191809   -1.3805623072   -2.1650905126
27   
torsion grid (-60,)
C       -1.3024790152   -0.8409423203    4.3811085397
C        0.1522267303   -0.9503934287    0.1734548666
C        2.4504841469   -0.8974635252    1.1989264893
C       -0.4625799170   -1.3206251453    1.5322717748
C        1.8491790766   -1.2674589761    2.5614885689
C        1.6055595131   -1.4288358600    0.0296604054
C        0.4087820437   -0.7817576214    2.6676264214
C       -1.6555844716   -1.5042606510    5.6926722564
C        2.2011248825   -1.0273752922   -1.3234801905
O       -2.0266640069   -0.0771183664    3.7700107874
O       -0.0577811425   -1.1962899175    3.9878603664
H       -0.4633878039   -1.3701929898   -0.6306729561
H        0.1220523412    0.1412822606    0.0466939109
H        2.5256419635    0.1962051615    1.1154245551
H        3.4740798779   -1.2843092360    1.1308438544
H       -1.4743106153   -0.9225011143    1.6128447871
H       -0.5226623674   -2.4135031345    1.6261897856
H        1.8606465865   -2.3568374246    2.6921725040
H        2.4412870997   -0.8395519696    3.3775995991
H        1.6035042462   -2.5274789975    0.0920051142
H        0.3795401966    0.3145533284    2.6457684795
H       -1.7060509137   -2.5887959193    5.5554482602
H       -2.6183581212   -1.1318582945    6.0419933330
H       -0.8807103666   -1.3048604351    6.4381075338
H        3.2285827726   -1.3931734520   -1.4310578427
H        2.2227712409    0.0638360660   -1.4324347426
H        1.6118219993   -1.4327232583   -2.1536806209
27   
torsion grid (-45,)
C       -1.3522966039   -0.9049635019    4.3595547876
C        0.1620970184   -0.8915821826    0.1691159508
C        2.4525837262   -0.9215539302    1.2048923977
C       -0.4841642295   -1.2057281469    1.5283669116
C        1.8252792439   -1.2375006077    2.5685522168
C        1.5917276787   -1.4390121971    0.0417676100
C        0.4054595279   -0.6886114091    2.6604856337
C       -1.6017113377   -1.5723015177    5.6938155983
C        2.2107582064   -1.0928048796   -1.3160344348
O       -2.1964614629   -0.3114262256    3.7149079203
O       -0.0535705482   -1.0352424979    4.0053682007
H       -0.4688191625   -1.2959092109   -0.6310605131
H        0.1844067548    0.1978494846    0.0217560960
H        2.5770336054    0.1657644793    1.0998609544
H        3.4583851527   -1.3548558147    1.1532435812
H       -1.4755630936   -0.7599232419    1.5881900976
H       -0.6011401282   -2.2927083300    1.6392724194
H        1.7864744319   -2.3236002489    2.7199618126
H        2.4297446799   -0.8216807908    3.3817226599
H        1.5396810052   -2.5348976018    0.1267772334
H        0.4291057964    0.4079238180    2.6112235943
H       -1.4610042634   -2.6532739831    5.5971134979
H       -2.6191320548   -1.3610082003    6.0223452168
H       -0.8829913900   -1.2144155375    6.4362027415
H        3.2214347772   -1.5059752476   -1.4102062946
H        2.2814953480   -0.0061328776   -1.4473984995
H        1.6079032979   -1.4888601135   -2.1409515501
27   
torsion grid (-30,)
C       -1.3967877026   -1.0098439223    4.3382592802
C        0.1760499630   -0.8237309681    0.1476239853
C        2.4424786838   -0.9569147010    1.2199326747
C       -0.5135583361   -1.0970667175    1.4950815177
C        1.7754414796   -1.2325423116    2.5728521574
C        1.5781232749   -1.4417755499    0.0462624991
C        0.3789840973   -0.6180121877    2.6414447852
C       -1.5224957564   -1.5980385367    5.7276230677
C        2.2349022219   -1.1380863187   -1.3039454807
O       -2.3387707607   -0.6570932760    3.6546718778
O       -0.0917000688   -0.9115923997    3.9975467642
H       -0.4610585177   -1.2005482637   -0.6610323727
H        0.2555505640    0.2624143521   -0.0052786591
H        2.6210052337    0.1224103407    1.1098976735
H        3.4271237374   -1.4383318640    1.1905211561
H       -1.4830987566   -0.6042799043    1.5309429789
H       -0.6935894577   -2.1748367968    1.6064571325
H        1.6820044961   -2.3145123378    2.7305673845
H        2.3837144047   -0.8403379671    3.3947144201
H        1.4709651080   -2.5330336267    0.1390343571
H        0.4594763378    0.4756019304    2.5844821284
H       -1.1715815218   -2.6346104223    5.7219679459
H       -2.5647120649   -1.5634788272    6.0444313973
H       -0.8948916063   -1.0444547070    6.4313689981
H        3.2258608825   -1.6002590241   -1.3779387899
H        2.3602294914   -0.0573107137   -1.4432340411
H        1.6270505497   -1.5121657923   -2.1354089980
27   
torsion grid (-15,)
C       -1.4100096173   -1.1720868001    4.3183487743
C        0.1899424335   -0.7551048746    0.1271639124
C        2.4285218167   -1.0102485516    1.2334280809
C       -0.5358322591   -1.0366068824    1.4542813339
C        1.7232324583   -1.2813715128    2.5677718801
C        1.5658564039   -1.4306043383    0.0340799438
C        0.3527369245   -0.6064498676    2.6228398618
C       -1.4682783064   -1.5313798689    5.7891638779
C        2.2592936805   -1.1248388779   -1.2971636452
O       -2.3748019320   -1.1629301976    3.5789605548
O       -0.1383460542   -0.8585343548    3.9815719493
H       -0.4474419223   -1.0837094882   -0.7020268228
H        0.3188069395    0.3303072782    0.0043157088
H        2.6573025715    0.0620003274    1.1498475256
H        3.3910787878   -1.5348479317    1.2120903407
H       -1.4906942753   -0.5139299666    1.4809954431
H       -0.7579885985   -2.1071284108    1.5359012015
H        1.5786430932   -2.3609975963    2.7025842023
H        2.3318365443   -0.9315740044    3.4081839076
H        1.4100646141   -2.5179272799    0.0991209107
H        0.4852593978    0.4821740223    2.5745390229
H       -0.8926518392   -2.4445731405    5.9687827882
H       -2.5061237232   -1.6861055682    6.0836695326
H       -1.0187836895   -0.7374158466    6.3917511601
H        3.2306288021   -1.6278012628   -1.3651970680
H        2.4334767836   -0.0476130964   -1.4087562230
H        1.6509869414   -1.4531324217   -2.1474023142
27   
torsion grid (0,)
C       -1.3594463124   -1.3523429787    4.3152935264
C        0.1947478613   -0.6915455105    0.1302536885
C        2.4209277817   -1.0760859023    1.2325329498
C       -0.5400377218   -1.0169083090    1.4423360261
C        1.6988784228   -1.3645464147    2.5552268552
C        1.5477014301   -1.4100996926    0.0131586894
C        0.3564731573   -0.6352933158    2.6214210369
C       -1.4804690793   -1.4064725566    5.8250240708
C        2.2589571786   -1.0715733732   -1.3006390279
O       -2.2255644795   -1.7242340462    3.5479770751
O       -0.1515172070   -0.8446707596    3.9809776787
H       -0.4483542451   -0.9637029919   -0.7148149675
H        0.3594811283    0.3935266626    0.0564612860
H        2.6968576397   -0.0124508813    1.1921324064
H        3.3598406227   -1.6409079591    1.1930545293
H       -1.4898773799   -0.4815476268    1.4878252328
H       -0.7775391304   -2.0834424440    1.4805637111
H        1.5112106947   -2.4414497893    2.6545927974
H        2.3167996250   -1.0641174847    3.4078892226
H        1.3515574933   -2.4925763056    0.0290732308
H        0.5366389914    0.4462693369    2.5826988528
H       -0.7387670480   -2.1022408860    6.2291319662
H       -2.4823145054   -1.7390451280    6.0961570556
H       -1.2777129565   -0.4233801949    6.2584530546
H        3.2121023600   -1.6055822247   -1.3868663651
H        2.4721271819    0.0025657950   -1.3642925595
H        1.6440144729   -1.3405755317   -2.1667761823
27   
torsion grid (15,)
C       -1.2448863883   -1.5061896066    4.3286042087
C        0.1963581039   -0.6237849756    0.1572883826
C        2.4184703785   -1.1473928240    1.2205315855
C       -0.5290234264   -0.9761406053    1.4669018840
C        1.6999330742   -1.4400832012    2.5454794503
C        1.5167778469   -1.3953679790    0.0004327948
C        0.3949882878   -0.6491174975    2.6409394491
C       -1.5424742566   -1.3139517480    5.8014859814
C        2.2299541796   -1.0400100405   -1.3079372111
O       -1.9166569552   -2.1879088762    3.5789309624
O       -0.1270090689   -0.8204077675    3.9996022801
H       -0.4653927200   -0.8403107262   -0.6894450313
H        0.4047419744    0.4556226216    0.1206855555
H        2.7485582299   -0.0985368290    1.2109057774
H        3.3263552827   -1.7579021877    1.1494199097
H       -1.4662160678   -0.4172715244    1.5475190977
H       -0.7903350960   -2.0350294503    1.4736683263
H        1.4643000106   -2.5092870741    2.6199470772
H        2.3417756949   -1.1883083572    3.3963998374
H        1.2721971333   -2.4676771097   -0.0214341409
H        0.6265936082    0.4221007613    2.6115253915
H       -0.6560717475   -1.5373207407    6.4012273675
H       -2.3686968380   -1.9624993236    6.0923824611
H       -1.8105565748   -0.2695570486    5.9890446183
H        3.1574448871   -1.6120675103   -1.4243764985
H        2.4901782629    0.0252787014   -1.3344659054
H        1.5954081610   -1.2493095939   -2.1764177711
27   
torsion grid (30,)
C       -1.1022201527   -1.6048624641    4.3409035247
C        0.1963014618   -0.5664686306    0.1802138637
C        2.4093076839   -1.1846477807    1.2153730638
C       -0.5216027056   -0.8923857362    1.5002321196
C        1.6985941583   -1.4499626371    2.5508353519
C        1.4815528513   -1.3928965983    0.0071114721
C        0.4298255350   -0.6035729594    2.6623617925
C       -1.6017955174   -1.3127312850    5.7397110164
C        2.1919556945   -1.0666452345   -1.3103240335
O       -1.5211701509   -2.5038818725    3.6365024628
O       -0.1147402460   -0.7409291440    4.0150219528
H       -0.4845140365   -0.7556697559   -0.6579278218
H        0.4487555693    0.5033520185    0.1410035462
H        2.7827198124   -0.1503645335    1.2020425125
H        3.2897558546   -1.8323721481    1.1300293380
H       -1.4324682765   -0.2906128880    1.5990290188
H       -0.8239814762   -1.9391767579    1.5110040594
H        1.4193804410   -2.5076832433    2.6280961125
H        2.3630002525   -1.2241160949    3.3918504838
H        1.1914285538   -2.4537244407   -0.0116415516
H        0.7044464853    0.4566413620    2.6353876178
H       -0.7633516361   -1.2681813443    6.4400925784
H       -2.3065046252   -2.0865766804    6.0436661326
H       -2.0954649193   -0.3361322936    5.7577864733
H        3.0930577857   -1.6769824591   -1.4387665030
H        2.4963196526   -0.0131760460   -1.3401128993
H        1.5381279264   -1.2486708651   -2.1706358440
27   
torsion grid (45,)
C       -0.9866083171   -1.6392036539    4.3412527501
C        0.1994038783   -0.5193763913    0.1784505882
C        2.3861748004   -1.2059547121    1.2284637451
C       -0.5299581537   -0.7877942689    1.5046180380
C        1.6677743979   -1.4306738179    2.5675337738
C        1.4507666494   -1.4000158107    0.0234220448
C        0.4334211986   -0.5330651499    2.6649764660
C       -1.6052584232   -1.3745616615    5.6962591163
C        2.1738685452   -1.1263664979   -1.2991054673
O       -1.1967030296   -2.6328381720    3.6704806154
O       -0.1581126821   -0.6268099606    4.0003586395
H       -0.4880331799   -0.6965888586   -0.6569269585
H        0.4957518590    0.5381683852    0.1191468075
H        2.7952025552   -0.1854543309    1.1997521828
H        3.2433516648   -1.8851866009    1.1515934730
H       -1.4065979158   -0.1357385044    1.5988120311
H       -0.8825076084   -1.8190690457    1.5317556805
H        1.3509237773   -2.4754070458    2.6557660836
H        2.3409125299   -1.2174434805    3.4052408809
H        1.1192302376   -2.4487174804    0.0245010254
H        0.7513060420    0.5144616637    2.6350357520
H       -0.8291660583   -1.1326248243    6.4274215797
H       -2.1665924265   -2.2517649514    6.0176133396
H       -2.2753186154   -0.5115649345    5.6323664357
H        3.0498206155   -1.7745084921   -1.4156003569
H        2.5201674323   -0.0866218903   -1.3476908021
H        1.5134962025   -1.2977100254   -2.1566516236
27   
torsion grid (60,)
C       -0.9174917583   -1.6547174506    4.3447098999
C        0.2066506609   -0.4837438997    0.1543475781
C        2.3561729858   -1.2153097715    1.2505923134
C       -0.5497936299   -0.6966657066    1.4750003777
C        1.6149757073   -1.4228106241    2.5804446368
C        1.4329206327   -1.4045026626    0.0352046124
C        0.4057981476   -0.4899393145    2.6503471253
C       -1.5653737611   -1.4337509830    5.6935204991
C        2.1825592947   -1.1761548234   -1.2811857988
O       -0.9860350831   -2.6895874082    3.7071004008
O       -0.2575326354   -0.5416078706    3.9530421871
H       -0.4736017468   -0.6552127932   -0.6881211863
H        0.5377813191    0.5623867883    0.0790404140
H        2.7820242561   -0.2017004202    1.2190217302
H        3.2027914375   -1.9092039243    1.1901653646
H       -1.3871079845    0.0062128900    1.5558999222
H       -0.9605725034   -1.7079746154    1.5093850401
H        1.2772400918   -2.4593785735    2.6629135389
H        2.2805989006   -1.2208963976    3.4273171696
H        1.0710680707   -2.4429775043    0.0505994365
H        0.7634008701    0.5452091187    2.6283852993
H       -0.8322807884   -1.0557421108    6.4111850453
H       -1.9939219188   -2.3707478091    6.0487435737
H       -2.3539050723   -0.6801756582    5.6028505132
H        3.0393716318   -1.8530344520   -1.3739439210
H        2.5617408871   -0.1486164532   -1.3424728320
H        1.5292379644   -1.3417880833   -2.1452470997
27   
torsion grid (75,)
C       -0.8884908674   -1.6710851294    4.3714603633
C        0.2091272098   -0.4743476013    0.1075152115
C        2.3197786255   -1.2107872410    1.2761750193
C       -0.5876018577   -0.6675910849    1.4071109567
C        1.5368735321   -1.4353690479    2.5796378945
C        1.4349271128   -1.4004082251    0.0322426504
C        0.3344254873   -0.4929801088    2.6126638818
C       -1.4948475458   -1.4446855018    5.7384821027
C        2.2266911658   -1.1792127457   -1.2605764370
O       -0.8447770925   -2.7473994716    3.8043346085
O       -0.4111233760   -0.5090812964    3.8711174841
H       -0.4455327541   -0.6478973018   -0.7545585271
H        0.5479887169    0.5694846752    0.0353479553
H        2.7410834967   -0.1949087639    1.2627540841
H        3.1710545750   -1.9004976221    1.2384813473
H       -1.4066233038    0.0574432983    1.4690656497
H       -1.0279959375   -1.6691946924    1.4315602361
H        1.2003522181   -2.4722211959    2.6352503896
H        2.1753296897   -1.2449802206    3.4502435437
H        1.0697818883   -2.4378267094    0.0399377206
H        0.7133712079    0.5353648237    2.6031528849
H       -0.7049899384   -1.1852584130    6.4504796272
H       -1.9994529570   -2.3527742436    6.0679649823
H       -2.1979421691   -0.6079764275    5.7104579566
H        3.0810325879   -1.8623607054   -1.3259040667
H        2.6149426879   -0.1545054259   -1.3112200758
H        1.5993335736   -1.3413741349   -2.1443316031
27   
torsion grid (90,)
C       -0.8327951530   -1.7019877975    4.4527211943
C        0.2192008171   -0.4496049319    0.0792379106
C        2.2914753379   -1.2461716501    1.2770999322
C       -0.6062021330   -0.6650444619    1.3567659393
C        1.4737806478   -1.5144473276    2.5512438433
C        1.4376321031   -1.3852964214    0.0049299102
C        0.2901076237   -0.5492421885    2.5874918299
C       -1.4737615726   -1.3892936493    5.7872908687
C        2.2641575661   -1.1301272771   -1.2594823966
O       -0.6487564318   -2.8256516197    4.0233723475
O       -0.5185576967   -0.5562267521    3.8072941245
H       -0.4187041726   -0.5915034805   -0.8010114511
H        0.5703100842    0.5919766754    0.0436815637
H        2.7210568080   -0.2342458071    1.3107410380
H        3.1376911384   -1.9418879942    1.2365572301
H       -1.4135036041    0.0718031250    1.4251977273
H       -1.0674856624   -1.6597188961    1.3444385103
H        1.1227026734   -2.5467131656    2.5563453945
H        2.0945439224   -1.3736560882    3.4437098058
H        1.0630405531   -2.4188543867   -0.0307871562
H        0.6958647666    0.4691436731    2.6111568667
H       -0.7320435514   -0.9378308044    6.4536407724
H       -1.8546932431   -2.3081848342    6.2326842470
H       -2.2830508017   -0.6652707677    5.6602351986
H        3.1129233090   -1.8199957435   -1.3260229971
H        2.6637977864   -0.1085546407   -1.2659490058
H        1.6579848614   -1.2558433003   -2.1637374080
27   
torsion grid (105,)
C       -0.7411523462   -1.7166967194    4.5659033672
C        0.2284732841   -0.4215695185    0.0690368712
C        2.2718888853   -1.2959874308    1.2597792757
C       -0.6100437283   -0.6723321349    1.3312457394
C        1.4324150206   -1.6082054750    2.5099321637
C        1.4362197070   -1.3684303528   -0.0294529901
C        0.2728106231   -0.6155653612    2.5760219329
C       -1.5041175578   -1.3210165726    5.8125817107
C        2.2836481778   -1.0693836030   -1.2702290812
O       -0.3529907351   -2.8447372900    4.3292683541
O       -0.5817087545   -0.6385603979    3.7655514724
H       -0.4036182274   -0.5228222249   -0.8209843028
H        0.5917863267    0.6163044676    0.0750747874
H        2.7154076210   -0.2929661360    1.3434429101
H        3.1088272913   -2.0016036370    1.2020224355
H       -1.4096407997    0.0706428987    1.4189482620
H       -1.0850787130   -1.6602164692    1.2789014411
H        1.0581794023   -2.6311190062    2.4604838112
H        2.0461205219   -1.5337796700    3.4139379187
H        1.0498625904   -2.3947386792   -0.1157194589
H        0.7034889285    0.3914329781    2.6375606429
H       -0.8841213767   -0.6609538651    6.4273657808
H       -1.7612818520   -2.2149011330    6.3806745906
H       -2.4082237000   -0.7669418942    5.5466007256
H        3.1249499847   -1.7663423968   -1.3548440224
H        2.6955752892   -0.0536461641   -1.2268561961
H        1.6890401129   -1.1482947258   -2.1874023012
27   
torsion grid (120,)
C       -0.4804776850   -1.3001295869    4.7905636945
C        0.2048837389   -1.4675071354   -0.0208098756
C        2.0972817174   -0.3560618401    1.2118800019
C       -0.4804039822   -1.7615011423    1.3208685844
C        1.4441320344   -0.6914496072    2.5638381461
C        1.7327090185   -1.3697073723    0.1155616670
C       -0.0728145317   -0.7353667195    2.3775264922
C       -1.6611812471   -1.3697179482    5.7376738858
C        2.3959586919   -1.0228753461   -1.2211483809
O        0.6705801623   -1.5135013414    5.1176771531
O       -0.9163468017   -0.9755160186    3.5524055139
H       -0.0608305650   -2.2428952426   -0.7489808865
H       -0.1774643999   -0.5188567926   -0.4244669756
H        1.7890935200    0.6485958968    0.8868936657
H        3.1854086602   -0.3190859778    1.3398339824
H       -1.5696918471   -1.7534097639    1.2091061580
H       -0.1976481961   -2.7601839900    1.6779778027
H        1.8104553322   -1.6549852079    2.9245118969
H        1.7193528834    0.0523192363    3.3153422376
H        2.1030353626   -2.3542205357    0.4379401513
H       -0.4022904627    0.2568894169    2.0448634393
H       -2.1252199425   -0.3825375984    5.8239288893
H       -1.3203038930   -1.7039560834    6.7174201348
H       -2.4190150587   -2.0549828811    5.3480194414
H        3.4871141267   -0.9884019076   -1.1269117603
H        2.0615160966   -0.0419048545   -1.5804810561
H        2.1488832435   -1.7614801694   -1.9921881629
27   
torsion grid (135,)
C       -0.4824004485   -1.0638459000    4.8310763657
C        0.1706095710   -1.3729768412   -0.0284669624
C        2.1386118892   -0.4395588265    1.2183903819
C       -0.5301149730   -1.6341715572    1.3103611780
C        1.4505897408   -0.7136361769    2.5670559000
C        1.6998901652   -1.4069701543    0.1095765224
C       -0.0679838787   -0.6501917198    2.3867691856
C       -1.6266336094   -1.5433319591    5.7011245373
C        2.3962595738   -1.1011944707   -1.2201150444
O        0.6358573627   -0.8286311006    5.2452413003
O       -0.9075825606   -0.9452019556    3.5527331567
H       -0.1606745990   -2.1110269093   -0.7685552965
H       -0.1315035692   -0.3888111825   -0.4147095363
H        1.9211231212    0.5901382142    0.8985432442
H        3.2246964464   -0.4946576302    1.3569273845
H       -1.6173920349   -1.5644394685    1.1993359438
H       -0.3066477857   -2.6503271477    1.6593576424
H        1.7365273380   -1.7049021543    2.9355610238
H        1.7838374459    0.0070297910    3.3130603858
H        1.9844232735   -2.4231600200    0.4212089163
H       -0.3479929111    0.3700279310    2.0966069036
H       -2.5335309529   -0.9683097964    5.4982395734
H       -1.3455478607   -1.4546656330    6.7505009341
H       -1.8425923828   -2.5914043691    5.4699587247
H        3.4861214100   -1.1560221148   -1.1204506663
H        2.1443249689   -0.0927110476   -1.5704075367
H        2.0944412362   -1.8094783135   -2.0000783215
27   
torsion grid (150,)
C       -0.5460976495   -0.8809849775    4.8120765982
C        0.1610950872   -1.3199226315   -0.0549623341
C        2.1441844950   -0.5142479018    1.2528590700
C       -0.5749810446   -1.5825464406    1.2640919678
C        1.4083886507   -0.7807202539    2.5768219432
C        1.6841358387   -1.4289357320    0.1089811847
C       -0.1033791392   -0.6402490536    2.3733414259
C       -1.5172226857   -1.6139857800    5.7130702571
C        2.4198761057   -1.1183587453   -1.1981318191
O        0.4265420936   -0.2674869769    5.2074401638
O       -0.9406956116   -0.9940574162    3.5231521530
H       -0.1899009379   -2.0241663957   -0.8185772116
H       -0.0884142736   -0.3140277610   -0.4222317140
H        1.9875119191    0.5329010923    0.9554312747
H        3.2223769829   -0.6275969035    1.4157525467
H       -1.6570696813   -1.4755724472    1.1317104057
H       -0.3934639324   -2.6118734511    1.5971719763
H        1.6261229616   -1.7993072746    2.9239292252
H        1.7615328617   -0.0977110661    3.3472773595
H        1.9152931419   -2.4658050262    0.3958726911
H       -0.3452733901    0.3998107638    2.1230747128
H       -2.5480434016   -1.3579448619    5.4551451605
H       -1.3110592873   -1.3607545059    6.7529452307
H       -1.4013865866   -2.6931377247    5.5699983265
H        3.5039255048   -1.2266149513   -1.0801927166
H        2.2215498264   -0.0897228674   -1.5233277446
H        2.1011681280   -1.7894112230   -2.0038742930
27   
torsion grid (165,)
C       -0.6140600310   -0.7851533505    4.7740750374
C        0.1595587067   -1.2779773988   -0.0809035976
C        2.1481234134   -0.5859340711    1.2863915779
C       -0.5999541658   -1.5882875454    1.2146638155
C        1.3829674030   -0.8972862263    2.5827548635
C        1.6780090772   -1.4306963686    0.0935373708
C       -0.1227339576   -0.7080099824    2.3694201076
C       -1.4429722647   -1.5750985562    5.7623172845
C        2.4352495806   -1.0734991011   -1.1891250622
O        0.2156131415    0.0502150074    5.0806582274
O       -0.9440874874   -1.1242077922    3.5067348943
H       -0.1971744425   -1.9352869892   -0.8826948576
H       -0.0624765954   -0.2497151421   -0.4005959060
H        2.0251150922    0.4786787453    1.0402311847
H        3.2202806948   -0.7386219083    1.4569075003
H       -1.6779087807   -1.4532363204    1.0727027151
H       -0.4436276297   -2.6354339439    1.5009328224
H        1.5627711681   -1.9396754893    2.8788720538
H        1.7403584459   -0.2604920356    3.3907243963
H        1.8814215449   -2.4858473254    0.3306098458
H       -0.3423863296    0.3485612312    2.1758180518
H       -2.4957331379   -1.5740061922    5.4686310841
H       -1.3248446386   -1.1502411288    6.7590703425
H       -1.1044610299   -2.6162882054    5.7680568318
H        3.5151904510   -1.2124518616   -1.0656534191
H        2.2639022172   -0.0258249900   -1.4650911235
H        2.1105755304   -1.6966135719   -2.0302002009
27   
torsion grid (180,)
C       -0.6715832772   -0.7379716775    4.7374385030
C        0.1597062383   -1.2476744054   -0.0902625357
C        2.1623435672   -0.6458856086    1.3054511429
C       -0.6044045194   -1.6203683364    1.1868611723
C        1.3939122355   -1.0203715862    2.5820293085
C        1.6777083468   -1.4230992970    0.0722214277
C       -0.1097076092   -0.8098741678    2.3820427859
C       -1.4271557736   -1.4930015052    5.8068894789
C        2.4335961143   -1.0065236338   -1.1933168513
O        0.0322112063    0.2344467835    4.9382335226
O       -0.8938595120   -1.2841021038    3.5196904884
H       -0.2030577601   -1.8565852588   -0.9267746945
H       -0.0525203663   -0.2014218557   -0.3531987183
H        2.0491032592    0.4312738320    1.1165505839
H        3.2334523742   -0.8190328775    1.4625727117
H       -1.6801594662   -1.4605247999    1.0539343845
H       -0.4637818170   -2.6845881719    1.4121552439
H        1.5641448591   -2.0785762777    2.8215213369
H        1.7510602796   -0.4269815261    3.4243922334
H        1.8721303434   -2.4909896429    0.2530101123
H       -0.3231635443    0.2569027625    2.2507644834
H       -2.4569081858   -1.6800418154    5.4920486833
H       -1.4097868650   -0.9240018479    6.7363370852
H       -0.9504514806   -2.4654330903    5.9678165873
H        3.5127377027   -1.1605785427   -1.0811936928
H        2.2702119151    0.0553560986   -1.4142158040
H        2.1009377115   -1.5827819612   -2.0641531392
