9    
torsion grid (-165,)
O       -0.8435819073   -2.5572513797    0.6168357031
P       -0.1329235132   -1.6234810473   -0.4277447022
O       -0.1246373626   -0.0912918671    0.3288070245
P        0.0206587768    1.6044970125    0.4853413383
O        0.7852885981    2.1823230771   -0.7485329151
O        0.8151026046    1.8139560062    1.8235406286
O       -1.4408762676    2.1623947116    0.5955703775
O        1.3568401576   -2.0482899640   -0.6578437865
O       -0.9397500577   -1.5264212970   -1.7638529378
9    
torsion grid (-150,)
O       -0.8679885834   -2.5008960795    0.6883858730
P       -0.1542499919   -1.6037908897   -0.3854621213
O       -0.0282268673   -0.0723094881    0.3636419600
P        0.0535515702    1.6306223548    0.4886763190
O        0.8292469913    2.2025108172   -0.7419629316
O        0.8242418583    1.8794275636    1.8348349224
O       -1.4192933187    2.1599980495    0.5659202456
O        1.3075805157   -2.0969063280   -0.6615732359
O       -0.9975389382   -1.4762873581   -1.6951290050
9    
torsion grid (-135,)
O       -0.7835507514   -2.5761371788    0.7512818970
P       -0.0407159797   -1.7148666206   -0.3313184816
O        0.1634877406   -0.1812851551    0.3945860541
P        0.1671443071    1.5207962954    0.5431219033
O        0.9082010104    2.1345198900   -0.6899523829
O        0.9474197012    1.7813733896    1.8815518842
O       -1.3213121491    1.9964611365    0.6431365147
O        1.4032397252   -2.2631083370   -0.6046718862
O       -0.8778404082   -1.5685836572   -1.6421843932
9    
torsion grid (-120,)
O       -0.9690097560   -2.4145054538    0.7062391090
P       -0.1801249109   -1.6042185125   -0.3818859776
O        0.0981651636   -0.0654363497    0.3078879858
P        0.0383783959    1.6331126928    0.4829649978
O        0.7618172453    2.2807039762   -0.7444274427
O        0.8165609304    1.8998831333    1.8213692539
O       -1.4613542194    2.0668576969    0.5902975635
O        1.2449971641   -2.2146087297   -0.6259796910
O       -0.9914812604   -1.4494216427   -1.7076998758
9    
torsion grid (-105,)
O       -1.0122021986   -2.3327850797    0.7213950113
P       -0.1780106456   -1.5774661328   -0.3711031813
O        0.1657620249   -0.0320817768    0.2730198979
P        0.0544806931    1.6587132970    0.4946626583
O        0.7611781132    2.3480380997   -0.7208705676
O        0.8327498728    1.9167515898    1.8346985541
O       -1.4529629749    2.0576303106    0.6128608631
O        1.2284361548   -2.2442544287   -0.5787504275
O       -0.9599032802   -1.4246270072   -1.7149933521
9    
torsion grid (-90,)
O       -0.9626080084   -2.2897775277    0.6614272023
P       -0.1234765487   -1.5575397947   -0.4411960400
O        0.2465881592   -0.0021963012    0.1624008859
P        0.0632028044    1.6685029338    0.4709485454
O        0.7585707467    2.4301898718   -0.7089634952
O        0.8213697997    1.8975793121    1.8274665370
O       -1.4575199153    2.0102024832    0.5865764457
O        1.2785014400   -2.2371612053   -0.6408026461
O       -0.9029459019   -1.4189576696   -1.7889050805
9    
torsion grid (-75,)
O       -0.9333174417   -2.2448263401    0.6316426278
P       -0.0781859592   -1.5581187221   -0.4860782737
O        0.3418095203    0.0039339071    0.0647720800
P        0.1491106627    1.6537181221    0.4672586189
O        0.8551348920    2.4681696375   -0.6720807891
O        0.8983041530    1.8198136389    1.8371997679
O       -1.3716524467    1.9921153176    0.5840516278
O        1.3054610796   -2.2772223036   -0.6765432058
O       -0.8552199269   -1.4275166824   -1.8369976515
9    
torsion grid (-60,)
O       -0.9577799738   -2.2127115742    0.6710783421
P       -0.1456146975   -1.5529812150   -0.4923764134
O        0.2719740505    0.0366669958   -0.0262847893
P        0.0614656332    1.6601556747    0.4643824471
O        0.7858613788    2.5221400030   -0.6288507650
O        0.7833499953    1.7757969701    1.8528802258
O       -1.4624811355    1.9895149419    0.5616385624
O        1.2417169443   -2.2591356012   -0.7047062933
O       -0.9645085173   -1.4755132702   -1.8237743758
9    
torsion grid (-45,)
O       -0.9078466925   -2.1921245085    0.7198098748
P       -0.1181824704   -1.5563026469   -0.4707640305
O        0.2658017993    0.0626327134   -0.0821146238
P        0.0419758844    1.6576040038    0.4889582051
O        0.7856127484    2.5626375626   -0.5569180688
O        0.7338511061    1.7227981588    1.8948468538
O       -1.4851460367    1.9791041843    0.5628131199
O        1.2815455225   -2.2398045841   -0.6738664669
O       -0.9480596341   -1.5416037954   -1.7988196881
9    
torsion grid (-30,)
O       -0.8790187053   -2.1365410642    0.7214289032
P       -0.0999438025   -1.5311178029   -0.4906095563
O        0.2609275776    0.1089174774   -0.1729300124
P        0.0779685055    1.6803678532    0.4733195222
O        0.8417244422    2.6045680720   -0.5416507978
O        0.7675823216    1.6836344326    1.8803870323
O       -1.4428119544    2.0323615497    0.5538026204
O        1.3049789267   -2.2066453094   -0.6825459484
O       -0.9366953389   -1.5656644883   -1.8154373417
9    
torsion grid (-15,)
O       -0.8880012369   -2.0984218046    0.7264860627
P       -0.1063370689   -1.5147605617   -0.4937793538
O        0.2014420658    0.1469533168   -0.2385195141
P        0.0659233039    1.7005098815    0.4599492677
O        0.8249427223    2.6359366237   -0.5484279478
O        0.7771400382    1.6617408989    1.8545321764
O       -1.4482930068    2.0751600771    0.5720045638
O        1.3137142771   -2.1656410532   -0.6522253329
O       -0.9280275104   -1.6064893101   -1.8266286707
9    
torsion grid (0,)
O       -0.8979446842   -2.0812404781    0.7460912789
P       -0.1045842067   -1.5089759628   -0.4716835603
O        0.1507359071    0.1673361806   -0.2584345768
P        0.0846085875    1.7038700562    0.4855712800
O        0.8419985739    2.6415676592   -0.5218874563
O        0.8245014672    1.6178862660    1.8616923876
O       -1.4176679328    2.1141734791    0.6389684984
O        1.3286203117   -2.1364669400   -0.5948054580
O       -0.9033901725   -1.6419220293   -1.8162613239
9    
torsion grid (15,)
O       -0.9188645794   -2.0895858647    0.7175934939
P       -0.1105871033   -1.5067179011   -0.4856239096
O        0.0846790348    0.1792344620   -0.2846089027
P        0.0978819409    1.6968268602    0.5004773126
O        0.8610299884    2.6345412190   -0.5027291480
O        0.8597660258    1.5575847282    1.8592051218
O       -1.3890406716    2.1488625179    0.6924634343
O        1.3363022702   -2.1052854404   -0.5771131562
O       -0.8804399599   -1.6620896821   -1.8453198938
9    
torsion grid (30,)
O       -0.9102910062   -2.0646596785    0.7123827025
P       -0.0862780331   -1.4768515712   -0.4780654597
O        0.0257016846    0.2207693013   -0.3101135543
P        0.1015177231    1.7327081201    0.4841991255
O        0.8581037022    2.6606027592   -0.5328097813
O        0.8869019427    1.5745995894    1.8262893581
O       -1.3735480526    2.2117514009    0.7077883413
O        1.3802140636   -2.0283782382   -0.5193601566
O       -0.8144767755   -1.6813231076   -1.8548600980
9    
torsion grid (45,)
O       -0.9200774900   -2.1027448681    0.6789032797
P       -0.1189368823   -1.4621925320   -0.5013679945
O       -0.1071817044    0.2357075714   -0.3087230047
P        0.0376338099    1.7462082390    0.4779362747
O        0.8250244955    2.6493274323   -0.5371539031
O        0.8092705484    1.5651396571    1.8242843706
O       -1.4239615038    2.2716004067    0.6950011056
O        1.3700909518   -1.9455818144   -0.5449931715
O       -0.8366621458   -1.6815449331   -1.8815350309
9    
torsion grid (60,)
O       -0.8979864212   -2.1407122153    0.6810594734
P       -0.1224461681   -1.4504777469   -0.4897561592
O       -0.1866942977    0.2411056295   -0.2572328619
P        0.0408471440    1.7537725260    0.5052591635
O        0.8627293969    2.6155194197   -0.5170987995
O        0.8013811368    1.5549746515    1.8552176964
O       -1.4004106122    2.3381781925    0.7157042879
O        1.3804797748   -1.8830586503   -0.5468975659
O       -0.8412833605   -1.6680534911   -1.8698311419
9    
torsion grid (75,)
O       -0.8808499684   -2.2014271058    0.6660617596
P       -0.1322037040   -1.4613483743   -0.4932361862
O       -0.2538637856    0.2184374150   -0.2044621034
P        0.0617814203    1.7339566809    0.5198373576
O        0.9262601865    2.5397818925   -0.5113699658
O        0.8023390920    1.5225641410    1.8791143661
O       -1.3531839754    2.3866924758    0.7130784583
O        1.3795274392   -1.8535386041   -0.5743515699
O       -0.8613623256   -1.6617761642   -1.8700660282
9    
torsion grid (90,)
O       -0.8491020214   -2.2121058039    0.6876855425
P       -0.1235915318   -1.4415150440   -0.4681604088
O       -0.3079638122    0.2274028089   -0.1484224170
P        0.0594142235    1.7724513631    0.4834260196
O        0.9395908094    2.5075369593   -0.5847673870
O        0.7949009016    1.6113817640    1.8530252310
O       -1.3416865138    2.4635008971    0.6467229406
O        1.3977182403   -1.7891737012   -0.5531925040
O       -0.8521608023   -1.6527902278   -1.8436311488
9    
torsion grid (105,)
O       -0.6968514999   -2.4754626907    0.6930271924
P       -0.0540251424   -1.6152766256   -0.4500680341
O       -0.3188585069    0.0187992198   -0.0244892801
P        0.0349906212    1.5935462257    0.5367987253
O        0.8269285064    2.3360674997   -0.5918373941
O        0.8507829936    1.4867752866    1.8667148372
O       -1.3784753147    2.2385904783    0.7695290458
O        1.4788925922   -1.8773938045   -0.5997118119
O       -0.8210188713   -1.8036339681   -1.8072345335
9    
torsion grid (120,)
O       -0.7442678228   -2.5054765809    0.6587351616
P       -0.0711932788   -1.6138797069   -0.4435785785
O       -0.3371382928    0.0001989772    0.0526219816
P        0.0338775699    1.5960487576    0.5385295613
O        0.8090737392    2.2978725619   -0.6260547666
O        0.8701686102    1.5270577392    1.8594207503
O       -1.3731834040    2.2528908125    0.7761327223
O        1.4627689602   -1.8828991700   -0.5665943336
O       -0.8103281797   -1.7531474637   -1.8209022936
9    
torsion grid (135,)
O       -0.7800451963   -2.5472180649    0.5992388900
P       -0.0779786094   -1.6324809695   -0.4664746748
O       -0.3299371603   -0.0379536973    0.0950299885
P        0.0338083505    1.5820272111    0.4990236228
O        0.7914851817    2.2431563458   -0.6986978864
O        0.8880116374    1.5687911200    1.8113469704
O       -1.3743951112    2.2387256638    0.7319030828
O        1.4544648358   -1.9185567227   -0.5688649338
O       -0.7956653964   -1.7236370469   -1.8581305967
9    
torsion grid (150,)
O       -0.8150980859   -2.5928076916    0.4880576572
P       -0.0939397285   -1.6288248339   -0.5207768700
O       -0.3069300575   -0.0743932888    0.1565553197
P        0.0365799028    1.5569567454    0.5321921932
O        0.7783669941    2.2203938739   -0.6731611750
O        0.9009671136    1.5563223441    1.8394170449
O       -1.3750119826    2.2005867268    0.7779274512
O        1.4332210566   -1.9399851588   -0.6369446035
O       -0.8094993200   -1.6208615748   -1.9153453524
9    
torsion grid (165,)
O       -0.8128260941   -2.5616103137    0.5782064854
P       -0.0807853488   -1.6244050214   -0.4480759618
O       -0.2478196686   -0.0638043032    0.2278641745
P        0.0396323384    1.6032154315    0.4724737090
O        0.7801705435    2.1954356828   -0.7693703145
O        0.8913965775    1.7162411454    1.7844090653
O       -1.3880302021    2.2289152231    0.6623347554
O        1.4404193301   -1.9675429351   -0.5652618748
O       -0.8027848049   -1.6206352745   -1.8379868033
9    
torsion grid (180,)
O       -0.8364146265   -2.5634035788    0.6099470688
P       -0.1297013223   -1.6208592234   -0.4293497500
O       -0.2102183283   -0.0771516115    0.2981052378
P        0.0095566948    1.6069183718    0.4879924199
O        0.7666548419    2.1829443826   -0.7510428101
O        0.8298477402    1.7731573216    1.8156997339
O       -1.4346773983    2.2039728587    0.6308972519
O        1.3768626757   -1.9984866927   -0.6204621601
O       -0.9096159541   -1.5688441975   -1.7850817654
