
  -OEChem-12102412493D

 14 14  0     0  0  0  0  0  0999 V2000
    1.8798   -1.0335   -0.1271 C   0  0  0  0  0  0  0  0  0  0  0  0
    0.8014   -0.4601    0.5462 C   0  0  0  0  0  0  0  0  0  0  0  0
    2.9155   -1.6278    0.5935 C   0  0  0  0  0  0  0  0  0  0  0  0
    0.7884   -0.4973    1.9359 C   0  0  0  0  0  0  0  0  0  0  0  0
    2.8802   -1.6529    1.9921 C   0  0  0  0  0  0  0  0  0  0  0  0
    1.8062   -1.0829    2.6976 C   0  0  0  0  0  0  0  0  0  0  0  0
   -0.3808    0.1264    2.5978 N   0  3  0  0  0  0  0  0  0  0  0  0
   -1.3567   -0.5958    2.8006 O   0  5  0  0  0  0  0  0  0  0  0  0
   -0.2957    1.3254    2.8623 O   0  0  0  0  0  0  0  0  0  0  0  0
    4.3450   -2.4894    2.8851 Br  0  0  0  0  0  0  0  0  0  0  0  0
    1.6880   -1.0852    4.8094 I   0  0  0  0  0  0  0  0  0  0  0  0
    1.9149   -1.0182   -1.2120 H   0  0  0  0  0  0  0  0  0  0  0  0
   -0.0182    0.0091    0.0109 H   0  0  0  0  0  0  0  0  0  0  0  0
    3.7572   -2.0755    0.0763 H   0  0  0  0  0  0  0  0  0  0  0  0
  1  2  1  0  0  0  0
  1  3  2  0  0  0  0
  1 12  1  0  0  0  0
  2  4  2  0  0  0  0
  2 13  1  0  0  0  0
  3  5  1  0  0  0  0
  3 14  1  0  0  0  0
  4  6  1  0  0  0  0
  4  7  1  0  0  0  0
  5  6  2  0  0  0  0
  5 10  1  0  0  0  0
  6 11  1  0  0  0  0
  7  8  1  0  0  0  0
  7  9  2  0  0  0  0
M  CHG  2   7   1   8  -1
M  END
$$$$
