
  -OEChem-12102412493D

 27 28  0     0  0  0  0  0  0999 V2000
   -1.4944    3.4093   -1.0356 C   0  0  0  0  0  0  0  0  0  0  0  0
   -2.5309    4.1437   -1.6113 C   0  0  0  0  0  0  0  0  0  0  0  0
    1.0252   -1.6963    0.3806 C   0  0  0  0  0  0  0  0  0  0  0  0
   -4.1353    2.6259   -0.5930 C   0  0  0  0  0  0  0  0  0  0  0  0
    2.9152   -1.8372    1.8843 C   0  0  0  0  0  0  0  0  0  0  0  0
    0.8301   -0.3455    0.7000 C   0  0  0  0  0  0  0  0  0  0  0  0
   -1.7482    2.2925   -0.2317 C   0  0  0  0  0  0  0  0  0  0  0  0
    1.6997    0.2703    1.6257 C   0  0  0  0  0  0  0  0  0  0  0  0
   -3.8465    3.7352   -1.3878 C   0  0  0  0  0  0  0  0  0  0  0  0
   -3.0836    1.9176   -0.0086 C   0  0  0  0  0  0  0  0  0  0  0  0
    2.0503   -2.4342    0.9636 C   0  0  0  0  0  0  0  0  0  0  0  0
    2.7314   -0.4925    2.2025 C   0  0  0  0  0  0  0  0  0  0  0  0
   -0.3344    0.3119   -0.0139 C   0  0  0  0  0  0  0  0  0  0  0  0
   -0.6640    1.5910    0.3587 N   0  0  0  0  0  0  0  0  0  0  0  0
   -0.9572   -0.2995   -0.8766 O   0  0  0  0  0  0  0  0  0  0  0  0
    1.5256    1.5915    1.9319 O   0  0  0  0  0  0  0  0  0  0  0  0
   -5.1676    4.6314   -2.1131 Cl  0  0  0  0  0  0  0  0  0  0  0  0
   -3.4649    0.5752    1.0381 Cl  0  0  0  0  0  0  0  0  0  0  0  0
    2.3104   -4.4831    0.4598 I   0  0  0  0  0  0  0  0  0  0  0  0
    4.0529    0.4301    3.6040 I   0  0  0  0  0  0  0  0  0  0  0  0
   -0.4616    3.6912   -1.2203 H   0  0  0  0  0  0  0  0  0  0  0  0
   -2.3218    5.0068   -2.2342 H   0  0  0  0  0  0  0  0  0  0  0  0
    0.3419   -2.1341   -0.3383 H   0  0  0  0  0  0  0  0  0  0  0  0
   -5.1611    2.3226   -0.4162 H   0  0  0  0  0  0  0  0  0  0  0  0
    3.7170   -2.4036    2.3444 H   0  0  0  0  0  0  0  0  0  0  0  0
   -0.0652    2.0793    1.0139 H   0  0  0  0  0  0  0  0  0  0  0  0
    2.1903    1.8648    2.5957 H   0  0  0  0  0  0  0  0  0  0  0  0
  1  2  1  0  0  0  0
  1  7  2  0  0  0  0
  1 21  1  0  0  0  0
  2  9  2  0  0  0  0
  2 22  1  0  0  0  0
  3  6  1  0  0  0  0
  3 11  2  0  0  0  0
  3 23  1  0  0  0  0
  4  9  1  0  0  0  0
  4 10  2  0  0  0  0
  4 24  1  0  0  0  0
  5 11  1  0  0  0  0
  5 12  2  0  0  0  0
  5 25  1  0  0  0  0
  6  8  2  0  0  0  0
  6 13  1  0  0  0  0
  7 10  1  0  0  0  0
  7 14  1  0  0  0  0
  8 12  1  0  0  0  0
  8 16  1  0  0  0  0
  9 17  1  0  0  0  0
 10 18  1  0  0  0  0
 11 19  1  0  0  0  0
 12 20  1  0  0  0  0
 13 14  1  0  0  0  0
 13 15  2  0  0  0  0
 14 26  1  0  0  0  0
 16 27  1  0  0  0  0
M  END
$$$$
