33
0 1 C17H11IN2O2
C                     0.202450574634     2.182552547926    -0.346502496409
C                    -0.440598163291     0.938198422573    -0.128582674879
C                   -10.083878903555     1.915793580471    -2.916098658828
C                   -10.982321036056     2.914798084122    -2.528158009586
C                    -0.513338248824     3.288729047176    -0.760401335750
C                    -1.798610864406     0.816603252297    -0.328711426292
C                    -8.717448188959     2.080344446234    -2.692939115062
C                   -10.508550028745     4.084179625833    -1.924218155749
C                    -4.095223051502     4.077437924045    -1.552152251316
C                    -1.914172747717     3.196271268429    -0.974403145087
C                    -2.746518715109     4.292510867433    -1.375094784897
C                    -2.565577929355     1.934795058789    -0.753531715954
C                    -8.220005513358     3.248193956419    -2.082679197255
C                    -9.138810840018     4.253017245053    -1.718240260457
C                    -4.634225045642     2.780418251733    -1.322456284185
C                    -6.076552027992     2.537019425944    -1.493974037807
C                    -2.171352697474     5.658108064421    -1.645282407919
N                    -3.905163103046     1.748316655780    -0.930156701715
N                    -6.852065659442     3.476067479571    -1.890362556709
O                    -1.102061066915     5.853268709676    -2.177863947879
O                    -2.946276926055     6.710187015554    -1.263113288134
I                    -8.436197428417     6.029650295087    -0.781498604536
H                     1.274457535171     2.266086070521    -0.189577407633
H                     0.142180311941     0.080513862803     0.196387621995
H                   -10.445742975172     1.013262141114    -3.400861354152
H                   -12.047896149229     2.794750736020    -2.702295079274
H                    -0.008166135713     4.228777669073    -0.944041761378
H                    -2.321386009805    -0.121588571436    -0.169782740302
H                    -8.014330413266     1.320309777373    -3.022698423358
H                   -11.202500904659     4.861842272395    -1.621852700617
H                    -4.777495933604     4.850403879440    -1.893299892403
H                    -6.416956249182     1.527240678488    -1.231997080760
H                    -3.724020436186     6.395087275979    -0.770449336751
