17
-1 1 C9ClH4INO
C                    -4.095231110871     4.250044031145    -1.498052607657
C                    -2.729100868387     4.372645278425    -1.343522865984
C                     0.144027436745     2.112678867173    -0.453524904193
C                    -4.687102284652     2.983960989921    -1.292816026136
C                    -1.954320978182     3.237177084864    -0.985487253900
C                    -2.658356304823     1.989698676092    -0.799382799258
C                    -1.952902904968     0.724745687510    -0.421545958046
C                    -0.550530495390     3.260410250457    -0.803628636733
C                    -0.529568632469     0.903537696282    -0.271968473673
N                    -3.998389808031     1.902524160282    -0.958379669732
O                    -2.556286567097    -0.356757257529    -0.259303183355
Cl                    0.365122051659     4.778392206337    -1.022238261924
I                     0.595463218104    -0.833225549876     0.267673496802
H                    -4.709922295139     5.105409810463    -1.771904142559
H                    -2.233625170937     5.327620899331    -1.491791165938
H                     1.220432971175     2.159773553965    -0.320643987421
H                    -5.765409385638     2.858104016894    -1.408257828555
