29
0 1 C14H10IN3S
C                    -0.415677620909    -2.122059131203   -11.137979422759
C                     0.428714102581     0.404347153646    -1.959606061488
C                     0.424090453745    -0.545777166387    -0.923735903570
C                    -0.563681237006    -3.036255266149   -12.189218993001
C                    -0.360851094142    -2.575782667354    -9.826227472778
C                     0.304240494035     0.015034533109    -3.293500315286
C                     0.294161440915    -1.908985742114    -1.206149023022
C                    -0.655726167568    -4.401528701936   -11.915567455334
C                    -0.451349461972    -3.951763136148    -9.518036162855
C                     0.172807824161    -1.347297084853    -3.598553895397
C                     0.170027352467    -2.292882895372    -2.541612726467
C                    -0.599777229478    -4.851512802036   -10.592113582147
C                    -0.059683114119    -3.161120730419    -4.828928000236
C                    -0.388915361914    -4.386323789640    -8.119862192349
N                     0.041032347998    -1.872475271591    -4.878989476724
N                    -0.252491365586    -3.526148265736    -7.170590969481
N                    -0.202929924519    -4.005341921262    -5.906217832119
S                    -0.007431108567    -3.913464745167    -3.207778777219
I                    -0.751538167816    -6.968549824546   -10.296792608128
H                    -0.343538723021    -1.057994374458   -11.345510331454
H                     0.530878637113     1.458671551854    -1.717147054425
H                     0.522271564490    -0.221524153347     0.108485270558
H                    -0.607721803985    -2.692342113208   -13.219025748479
H                    -0.246472747413    -1.881167388284    -8.999962132544
H                     0.306695585245     0.741345563850    -4.100765484270
H                     0.290659647766    -2.642741952245    -0.405200028557
H                    -0.770390180031    -5.111917584174   -12.727505677138
H                    -0.462106147677    -5.460001537260    -7.916907301250
H                    -0.273177828811    -5.007928933462    -5.736769600607
