29
0 1 C14H10IN3S
C                    -0.414844632478    -2.125469688909   -11.119512429299
C                     0.377533776132    -1.413003479196    -0.600271152903
C                     0.435063784600    -0.159925962778    -1.235169154173
C                    -0.562896176155    -3.034739109939   -12.174924408385
C                    -0.360535720400    -2.585725499676    -9.810091997066
C                     0.230706462766    -2.587002192614    -1.339395770584
C                     0.346267557603    -0.059513962624    -2.626847278622
C                    -0.655339365486    -4.400895721323   -11.906263937876
C                    -0.451400056605    -3.962626170597    -9.506416230367
C                     0.139978357941    -2.505839981893    -2.736407974858
C                     0.199434915421    -1.235672772124    -3.363541395958
C                    -0.599942618524    -4.857845788514   -10.585143683270
C                    -0.059748456921    -3.170789602408    -4.828258739234
C                    -0.389894112207    -4.407366346794    -8.112394083712
N                    -0.007914691869    -3.587161191603    -3.598899088275
N                    -0.253491055422    -3.558025482857    -7.151678318849
N                    -0.203274694055    -4.029414901673    -5.889149369358
S                     0.062128484344    -1.426252086845    -5.112101928347
I                    -0.752477621410    -6.975285969974   -10.300531234538
H                    -0.342292780571    -1.060481433263   -11.322025732600
H                     0.448575509742    -1.467237877832     0.482726945302
H                     0.549734517613     0.742261696604    -0.640807032134
H                    -0.606607833038    -2.686394394198   -13.203197777644
H                    -0.246067318293    -1.891899684212    -8.983464001106
H                     0.185280668602    -3.559428950780    -0.857928314669
H                     0.390905650321     0.909661837682    -3.115843867890
H                    -0.770049691538    -5.107715716033   -12.721290019831
H                    -0.463309427861    -5.480441425072    -7.914518627072
H                    -0.269805440657    -5.025028596511    -5.675571235171
