18
0 1 C9ClH5INO
C                    -4.087971090588     4.232408078743    -1.492838910356
C                    -2.725919195699     4.364233863784    -1.341214346278
C                     0.148422523360     2.114188017077    -0.453997385358
C                    -4.678678386720     2.960824298624    -1.286126755226
C                    -1.953001728812     3.229394560295    -0.983771624340
C                    -2.652684313599     1.992986967404    -0.799448618320
C                    -1.924633887950     0.806019448787    -0.436278288633
C                    -0.540810277337     3.250946027172    -0.800736217601
C                    -0.549578817803     0.895674800278    -0.273463843802
N                    -3.998351178094     1.880785571051    -0.953296917332
O                    -2.645563096498    -0.325520339542    -0.278306196287
Cl                    0.356333762299     4.748760298705    -1.017439518933
I                     0.560838163648    -0.841977124920     0.264122310252
H                    -4.708482430407     5.080972803757    -1.765776699093
H                    -2.235339022461     5.320230092900    -1.490440531068
H                     1.223420642205     2.148899782510    -0.318773684654
H                    -5.755073628654     2.836700931306    -1.401477068196
H                    -2.041060124025    -1.052400574458    -0.034816034511
