30
0 1 C16H11IN2
C                     0.226881839767     2.203135228916    -0.626648731817
C                    -0.355101424995     0.922838514273    -0.820965921516
C                   -10.341019011559     1.960206661747    -0.703105160108
C                   -11.132175232484     2.819352803682    -1.471922662511
C                    -0.567070288950     3.331589279094    -0.586023606850
C                    -2.847400767503     4.347963215045    -0.707651432652
C                    -1.719676383906     0.789362786440    -0.971687936819
C                    -8.965870917351     2.172724552350    -0.610190166959
C                   -10.543186296466     3.897663873497    -2.140567680949
C                    -4.198219447317     4.159426328562    -0.860873720315
C                    -1.974206251235     3.225719630946    -0.737555956508
C                    -2.562414809621     1.933754775769    -0.933805018742
C                    -8.352098485264     3.250491188776    -1.278187096776
C                    -9.169306057936     4.117436243897    -2.031403994624
C                    -4.685027915278     2.832051395121    -1.048350008666
C                    -6.125337748186     2.575594132097    -1.221596462525
N                    -3.905777170865     1.758903263929    -1.088368775926
N                    -6.983558650226     3.524880145469    -1.158651272533
I                    -8.287404380466     5.749928597387    -3.071061050497
H                     1.303819139085     2.290477403942    -0.509993949397
H                     0.283608906486     0.044040133054    -0.850948620722
H                   -10.794989001413     1.129931211319    -0.168928097939
H                   -12.204566634973     2.662082617279    -1.546655618836
H                    -0.123378883775     4.313549619803    -0.437862904499
H                    -2.434631187038     5.344363484181    -0.565444952898
H                    -2.185815856782    -0.179931332599    -1.122120428687
H                    -8.352800015492     1.525295089680     0.010927091350
H                   -11.152568298697     4.566799418042    -2.739586091474
H                    -4.909027416739     4.978633958252    -0.850368965297
H                    -6.389432181383     1.529394429735    -1.423448368397
