
  -OEChem-12122420533D

 27 28  0     0  0  0  0  0  0999 V2000
   -1.5652    3.5372   -0.4764 C   0  0  0  0  0  0  0  0  0  0  0  0
   -2.5569    4.3198   -1.0674 C   0  0  0  0  0  0  0  0  0  0  0  0
    2.0264   -0.7708   -0.0847 C   0  0  0  0  0  0  0  0  0  0  0  0
   -4.0828    2.4280   -0.9647 C   0  0  0  0  0  0  0  0  0  0  0  0
    2.8504   -1.7869    1.9509 C   0  0  0  0  0  0  0  0  0  0  0  0
    0.8755   -0.3413    0.5925 C   0  0  0  0  0  0  0  0  0  0  0  0
   -1.8116    2.2103   -0.1114 C   0  0  0  0  0  0  0  0  0  0  0  0
    0.6834   -0.6688    1.9540 C   0  0  0  0  0  0  0  0  0  0  0  0
   -3.8079    3.7512   -1.3133 C   0  0  0  0  0  0  0  0  0  0  0  0
   -3.0838    1.6700   -0.3543 C   0  0  0  0  0  0  0  0  0  0  0  0
    3.0118   -1.4773    0.5942 C   0  0  0  0  0  0  0  0  0  0  0  0
    1.6914   -1.3937    2.6183 C   0  0  0  0  0  0  0  0  0  0  0  0
   -0.1398    0.4142   -0.2058 C   0  0  0  0  0  0  0  0  0  0  0  0
   -0.8056    1.4232    0.5186 N   0  0  0  0  0  0  0  0  0  0  0  0
   -0.3990    0.1681   -1.3705 O   0  0  0  0  0  0  0  0  0  0  0  0
   -0.4340   -0.3491    2.6568 O   0  0  0  0  0  0  0  0  0  0  0  0
   -5.0619    4.7114   -2.0689 Cl  0  0  0  0  0  0  0  0  0  0  0  0
   -3.4460    0.0323    0.1356 Cl  0  0  0  0  0  0  0  0  0  0  0  0
    4.7718   -2.0987   -0.4235 I   0  0  0  0  0  0  0  0  0  0  0  0
    1.4383   -1.9093    4.6606 I   0  0  0  0  0  0  0  0  0  0  0  0
   -0.5775    3.9573   -0.3059 H   0  0  0  0  0  0  0  0  0  0  0  0
   -2.3579    5.3489   -1.3464 H   0  0  0  0  0  0  0  0  0  0  0  0
    2.1193   -0.5351   -1.1394 H   0  0  0  0  0  0  0  0  0  0  0  0
   -5.0601    1.9967   -1.1502 H   0  0  0  0  0  0  0  0  0  0  0  0
    3.6158   -2.3399    2.4840 H   0  0  0  0  0  0  0  0  0  0  0  0
   -0.2339    1.9087    1.2042 H   0  0  0  0  0  0  0  0  0  0  0  0
   -1.0830    0.0800    2.0634 H   0  0  0  0  0  0  0  0  0  0  0  0
  1  2  1  0  0  0  0
  1  7  2  0  0  0  0
  1 21  1  0  0  0  0
  2  9  2  0  0  0  0
  2 22  1  0  0  0  0
  3  6  1  0  0  0  0
  3 11  2  0  0  0  0
  3 23  1  0  0  0  0
  4  9  1  0  0  0  0
  4 10  2  0  0  0  0
  4 24  1  0  0  0  0
  5 11  1  0  0  0  0
  5 12  2  0  0  0  0
  5 25  1  0  0  0  0
  6  8  2  0  0  0  0
  6 13  1  0  0  0  0
  7 10  1  0  0  0  0
  7 14  1  0  0  0  0
  8 12  1  0  0  0  0
  8 16  1  0  0  0  0
  9 17  1  0  0  0  0
 10 18  1  0  0  0  0
 11 19  1  0  0  0  0
 12 20  1  0  0  0  0
 13 14  1  0  0  0  0
 13 15  2  0  0  0  0
 14 26  1  0  0  0  0
 16 27  1  0  0  0  0
M  END
$$$$
