
  -OEChem-12122420533D

 29 31  0     0  0  0  0  0  0999 V2000
   -0.4148   -2.1255  -11.1195 C   0  0  0  0  0  0  0  0  0  0  0  0
    0.3775   -1.4130   -0.6003 C   0  0  0  0  0  0  0  0  0  0  0  0
    0.4351   -0.1599   -1.2352 C   0  0  0  0  0  0  0  0  0  0  0  0
   -0.5629   -3.0347  -12.1749 C   0  0  0  0  0  0  0  0  0  0  0  0
   -0.3605   -2.5857   -9.8101 C   0  0  0  0  0  0  0  0  0  0  0  0
    0.2307   -2.5870   -1.3394 C   0  0  0  0  0  0  0  0  0  0  0  0
    0.3463   -0.0595   -2.6268 C   0  0  0  0  0  0  0  0  0  0  0  0
   -0.6553   -4.4009  -11.9063 C   0  0  0  0  0  0  0  0  0  0  0  0
   -0.4514   -3.9626   -9.5064 C   0  0  0  0  0  0  0  0  0  0  0  0
    0.1400   -2.5058   -2.7364 C   0  0  0  0  0  0  0  0  0  0  0  0
    0.1994   -1.2357   -3.3635 C   0  0  0  0  0  0  0  0  0  0  0  0
   -0.5999   -4.8578  -10.5851 C   0  0  0  0  0  0  0  0  0  0  0  0
   -0.0597   -3.1708   -4.8283 C   0  0  0  0  0  0  0  0  0  0  0  0
   -0.3899   -4.4074   -8.1124 C   0  0  0  0  0  0  0  0  0  0  0  0
   -0.0079   -3.5872   -3.5989 N   0  0  0  0  0  0  0  0  0  0  0  0
   -0.2535   -3.5580   -7.1517 N   0  0  0  0  0  0  0  0  0  0  0  0
   -0.2033   -4.0294   -5.8891 N   0  0  0  0  0  0  0  0  0  0  0  0
    0.0621   -1.4263   -5.1121 S   0  0  0  0  0  0  0  0  0  0  0  0
   -0.7525   -6.9753  -10.3005 I   0  0  0  0  0  0  0  0  0  0  0  0
   -0.3423   -1.0605  -11.3220 H   0  0  0  0  0  0  0  0  0  0  0  0
    0.4486   -1.4672    0.4827 H   0  0  0  0  0  0  0  0  0  0  0  0
    0.5497    0.7423   -0.6408 H   0  0  0  0  0  0  0  0  0  0  0  0
   -0.6066   -2.6864  -13.2032 H   0  0  0  0  0  0  0  0  0  0  0  0
   -0.2461   -1.8919   -8.9835 H   0  0  0  0  0  0  0  0  0  0  0  0
    0.1853   -3.5594   -0.8579 H   0  0  0  0  0  0  0  0  0  0  0  0
    0.3909    0.9097   -3.1158 H   0  0  0  0  0  0  0  0  0  0  0  0
   -0.7700   -5.1077  -12.7213 H   0  0  0  0  0  0  0  0  0  0  0  0
   -0.4633   -5.4804   -7.9145 H   0  0  0  0  0  0  0  0  0  0  0  0
   -0.2698   -5.0250   -5.6756 H   0  0  0  0  0  0  0  0  0  0  0  0
  1  4  1  0  0  0  0
  1  5  2  0  0  0  0
  1 20  1  0  0  0  0
  2  3  1  0  0  0  0
  2  6  2  0  0  0  0
  2 21  1  0  0  0  0
  3  7  2  0  0  0  0
  3 22  1  0  0  0  0
  4  8  2  0  0  0  0
  4 23  1  0  0  0  0
  5  9  1  0  0  0  0
  5 24  1  0  0  0  0
  6 10  1  0  0  0  0
  6 25  1  0  0  0  0
  7 11  1  0  0  0  0
  7 26  1  0  0  0  0
  8 12  1  0  0  0  0
  8 27  1  0  0  0  0
  9 12  2  0  0  0  0
  9 14  1  0  0  0  0
 10 11  2  0  0  0  0
 10 15  1  0  0  0  0
 11 18  1  0  0  0  0
 12 19  1  0  0  0  0
 13 15  2  0  0  0  0
 13 17  1  0  0  0  0
 13 18  1  0  0  0  0
 14 16  2  0  0  0  0
 14 28  1  0  0  0  0
 16 17  1  0  0  0  0
 17 29  1  0  0  0  0
M  END
$$$$
