21
0 1 C9H10IN
C                    -0.875668631400     3.295247695478     1.792748448762
C                    -0.757032810590     3.174887010966     3.178399281824
C                    -0.410903220069     2.273036564470     0.962414672422
C                    -0.178267493613     2.026115857965     3.723965052499
C                     0.179460841141     1.105538078696     1.475730806931
C                     0.276684051173     1.010679703408     2.877738735121
C                     0.554377222121     0.165300995627    -0.954893667231
C                    -0.767338192802    -0.636115193522    -0.900360315222
C                     0.637371777727    -0.032358630796     0.582987320310
N                    -0.369403217004    -1.139441647651     0.443974059890
I                     1.111618875191    -0.724927364630     3.814687447502
H                    -1.324515677844     4.183512914119     1.356260172028
H                    -1.109207314098     3.964882709226     3.836256398394
H                    -0.507575657170     2.390677024114    -0.111456394216
H                    -0.082803443257     1.922618945176     4.799946594273
H                     1.350497135865    -0.385943005272    -1.459132565748
H                     0.524773773639     1.180173507661    -1.352327157662
H                    -1.652920588820     0.014577371625    -0.895992534151
H                    -0.907722408497    -1.425637066507    -1.645704680749
H                     1.601180366423    -0.401686535299     0.945175751098
H                    -1.105941332897    -1.121584155210     1.147505392865
