
  -OEChem-12122420533D

 30 32  0     0  0  0  0  0  0999 V2000
    0.1808    2.0776   -0.5672 C   0  0  0  0  0  0  0  0  0  0  0  0
   -0.4941    0.8286   -0.6469 C   0  0  0  0  0  0  0  0  0  0  0  0
  -10.3559    2.4008   -0.7620 C   0  0  0  0  0  0  0  0  0  0  0  0
  -10.9583    1.6487   -1.7748 C   0  0  0  0  0  0  0  0  0  0  0  0
   -0.5248    3.2590   -0.6532 C   0  0  0  0  0  0  0  0  0  0  0  0
   -2.7239    4.4153   -0.9179 C   0  0  0  0  0  0  0  0  0  0  0  0
   -1.8611    0.7790   -0.8106 C   0  0  0  0  0  0  0  0  0  0  0  0
   -8.9652    2.4765   -0.6816 C   0  0  0  0  0  0  0  0  0  0  0  0
  -10.1633    0.9664   -2.7021 C   0  0  0  0  0  0  0  0  0  0  0  0
   -4.0850    4.2988   -1.0820 C   0  0  0  0  0  0  0  0  0  0  0  0
   -1.9355    3.2409   -0.8226 C   0  0  0  0  0  0  0  0  0  0  0  0
   -2.6193    1.9812   -0.9033 C   0  0  0  0  0  0  0  0  0  0  0  0
   -8.1467    1.7964   -1.6052 C   0  0  0  0  0  0  0  0  0  0  0  0
   -8.7722    1.0282   -2.6083 C   0  0  0  0  0  0  0  0  0  0  0  0
   -4.6701    3.0003   -1.1541 C   0  0  0  0  0  0  0  0  0  0  0  0
   -6.1348    2.9121   -1.3393 C   0  0  0  0  0  0  0  0  0  0  0  0
   -3.9643    1.8822   -1.0647 N   0  0  0  0  0  0  0  0  0  0  0  0
   -6.7503    1.8036   -1.5030 N   0  0  0  0  0  0  0  0  0  0  0  0
   -7.5793    0.0074   -4.0403 I   0  0  0  0  0  0  0  0  0  0  0  0
    1.2598    2.0959   -0.4382 H   0  0  0  0  0  0  0  0  0  0  0  0
    0.0787   -0.0925   -0.5780 H   0  0  0  0  0  0  0  0  0  0  0  0
  -10.9670    2.9211   -0.0294 H   0  0  0  0  0  0  0  0  0  0  0  0
  -12.0406    1.5816   -1.8425 H   0  0  0  0  0  0  0  0  0  0  0  0
   -0.0108    4.2157   -0.5930 H   0  0  0  0  0  0  0  0  0  0  0  0
   -2.2483    5.3918   -0.8615 H   0  0  0  0  0  0  0  0  0  0  0  0
   -2.3987   -0.1621   -0.8756 H   0  0  0  0  0  0  0  0  0  0  0  0
   -8.4918    3.0317    0.1238 H   0  0  0  0  0  0  0  0  0  0  0  0
  -10.6257    0.3836   -3.4924 H   0  0  0  0  0  0  0  0  0  0  0  0
   -4.7166    5.1799   -1.1606 H   0  0  0  0  0  0  0  0  0  0  0  0
   -6.6664    3.8758   -1.3500 H   0  0  0  0  0  0  0  0  0  0  0  0
  1  2  1  0  0  0  0
  1  5  2  0  0  0  0
  1 20  1  0  0  0  0
  2  7  2  0  0  0  0
  2 21  1  0  0  0  0
  3  4  1  0  0  0  0
  3  8  2  0  0  0  0
  3 22  1  0  0  0  0
  4  9  2  0  0  0  0
  4 23  1  0  0  0  0
  5 11  1  0  0  0  0
  5 24  1  0  0  0  0
  6 10  1  0  0  0  0
  6 11  2  0  0  0  0
  6 25  1  0  0  0  0
  7 12  1  0  0  0  0
  7 26  1  0  0  0  0
  8 13  1  0  0  0  0
  8 27  1  0  0  0  0
  9 14  1  0  0  0  0
  9 28  1  0  0  0  0
 10 15  2  0  0  0  0
 10 29  1  0  0  0  0
 11 12  1  0  0  0  0
 12 17  2  0  0  0  0
 13 14  2  0  0  0  0
 13 18  1  0  0  0  0
 14 19  1  0  0  0  0
 15 16  1  0  0  0  0
 15 17  1  0  0  0  0
 16 18  2  0  0  0  0
 16 30  1  0  0  0  0
M  END
$$$$
