
  -OEChem-12122420533D

 29 31  0     0  0  0  0  0  0999 V2000
   -1.0493   -4.6651  -11.8034 C   0  0  0  0  0  0  0  0  0  0  0  0
    0.4505   -1.5189   -0.5213 C   0  0  0  0  0  0  0  0  0  0  0  0
    1.0217   -0.3847   -1.1249 C   0  0  0  0  0  0  0  0  0  0  0  0
   -0.4710   -3.5177  -12.3528 C   0  0  0  0  0  0  0  0  0  0  0  0
   -1.1213   -4.7962  -10.4212 C   0  0  0  0  0  0  0  0  0  0  0  0
   -0.0635   -2.5615   -1.2924 C   0  0  0  0  0  0  0  0  0  0  0  0
    1.0885   -0.2742   -2.5169 C   0  0  0  0  0  0  0  0  0  0  0  0
    0.0251   -2.5220  -11.5090 C   0  0  0  0  0  0  0  0  0  0  0  0
   -0.6288   -3.8070   -9.5378 C   0  0  0  0  0  0  0  0  0  0  0  0
   -0.0050   -2.4678   -2.6906 C   0  0  0  0  0  0  0  0  0  0  0  0
    0.5735   -1.3187   -3.2866 C   0  0  0  0  0  0  0  0  0  0  0  0
   -0.0473   -2.6537  -10.1169 C   0  0  0  0  0  0  0  0  0  0  0  0
   -0.2686   -3.0307   -4.8052 C   0  0  0  0  0  0  0  0  0  0  0  0
   -0.7895   -4.1143   -8.1158 C   0  0  0  0  0  0  0  0  0  0  0  0
   -0.4752   -3.4244   -3.5838 N   0  0  0  0  0  0  0  0  0  0  0  0
   -0.4152   -3.3560   -7.1449 N   0  0  0  0  0  0  0  0  0  0  0  0
   -0.6377   -3.7897   -5.8879 N   0  0  0  0  0  0  0  0  0  0  0  0
    0.5166   -1.4617   -5.0434 S   0  0  0  0  0  0  0  0  0  0  0  0
    0.7655   -1.0257   -9.0102 I   0  0  0  0  0  0  0  0  0  0  0  0
   -1.4401   -5.4495  -12.4454 H   0  0  0  0  0  0  0  0  0  0  0  0
    0.4092   -1.5836    0.5628 H   0  0  0  0  0  0  0  0  0  0  0  0
    1.4164    0.4162   -0.5058 H   0  0  0  0  0  0  0  0  0  0  0  0
   -0.4029   -3.3918  -13.4299 H   0  0  0  0  0  0  0  0  0  0  0  0
   -1.5714   -5.6893   -9.9935 H   0  0  0  0  0  0  0  0  0  0  0  0
   -0.5065   -3.4413   -0.8349 H   0  0  0  0  0  0  0  0  0  0  0  0
    1.5301    0.6028   -2.9819 H   0  0  0  0  0  0  0  0  0  0  0  0
    0.4741   -1.6315  -11.9367 H   0  0  0  0  0  0  0  0  0  0  0  0
   -1.2727   -5.0780   -7.9069 H   0  0  0  0  0  0  0  0  0  0  0  0
   -1.0896   -4.6837   -5.6907 H   0  0  0  0  0  0  0  0  0  0  0  0
  1  4  1  0  0  0  0
  1  5  2  0  0  0  0
  1 20  1  0  0  0  0
  2  3  1  0  0  0  0
  2  6  2  0  0  0  0
  2 21  1  0  0  0  0
  3  7  2  0  0  0  0
  3 22  1  0  0  0  0
  4  8  2  0  0  0  0
  4 23  1  0  0  0  0
  5  9  1  0  0  0  0
  5 24  1  0  0  0  0
  6 10  1  0  0  0  0
  6 25  1  0  0  0  0
  7 11  1  0  0  0  0
  7 26  1  0  0  0  0
  8 12  1  0  0  0  0
  8 27  1  0  0  0  0
  9 12  2  0  0  0  0
  9 14  1  0  0  0  0
 10 11  2  0  0  0  0
 10 15  1  0  0  0  0
 11 18  1  0  0  0  0
 12 19  1  0  0  0  0
 13 15  2  0  0  0  0
 13 17  1  0  0  0  0
 13 18  1  0  0  0  0
 14 16  2  0  0  0  0
 14 28  1  0  0  0  0
 16 17  1  0  0  0  0
 17 29  1  0  0  0  0
M  END
$$$$
