27
0 1 C13Cl2H7I2NO2
C                    -2.546707348312     1.778655284869    -1.429899202640
C                    -3.516072128383     2.647231137151    -1.928884159929
C                     1.926425242768     0.260108977369     0.804528417911
C                    -3.065538117909     4.206624543583    -0.129369259760
C                     2.946299352585    -1.551422082017     2.045194331567
C                     0.764429861311    -0.496241210494     0.632195186332
C                    -1.814762998617     2.104229849199    -0.274018273349
C                     0.671000412662    -1.794199807223     1.174563726509
C                    -3.772063170409     3.854401620359    -1.279175324633
C                    -2.098337397457     3.332139898566     0.357920637752
C                     3.014779365777    -0.266631329912     1.504574536858
C                     1.777892221914    -2.299568525543     1.880360197242
C                    -0.369800237498     0.056203048986    -0.196318320947
N                    -0.826102983374     1.271574672980     0.274393290654
O                    -0.795388527338    -0.514045864590    -1.191077272880
O                    -0.493574660071    -2.463289276308     1.012813896266
Cl                   -4.992062316816     4.947498319491    -1.903960818200
Cl                   -1.213870681628     3.797188837754     1.809406592805
I                     4.782713208143     0.887863768933     1.744311874400
I                     1.663859126273    -4.252622383602     2.728195837770
H                    -2.345567672631     0.839334847856    -1.926057274103
H                    -4.071891681201     2.380773382656    -2.821875444363
H                     1.984308339438     1.252430210979     0.368215050121
H                    -3.259980770233     5.143871473780     0.379781043576
H                     3.785800213916    -1.967605739217     2.590390604254
H                    -0.419511239920     1.593202601922     1.145119740288
H                    -0.424439128610    -3.342556042860     1.431584346300
