
  -OEChem-12122420533D

 27 28  0     0  0  0  0  0  0999 V2000
   -1.9697    2.3429   -1.6194 C   0  0  0  0  0  0  0  0  0  0  0  0
   -2.9562    3.1762   -2.1444 C   0  0  0  0  0  0  0  0  0  0  0  0
    2.0163   -0.9282   -0.0768 C   0  0  0  0  0  0  0  0  0  0  0  0
   -3.8756    3.5048    0.0713 C   0  0  0  0  0  0  0  0  0  0  0  0
    2.8506   -1.8996    1.9760 C   0  0  0  0  0  0  0  0  0  0  0  0
    0.9898   -0.2657    0.6127 C   0  0  0  0  0  0  0  0  0  0  0  0
   -1.9099    2.0692   -0.2399 C   0  0  0  0  0  0  0  0  0  0  0  0
    0.8974   -0.4278    2.0130 C   0  0  0  0  0  0  0  0  0  0  0  0
   -3.9038    3.7533   -1.3005 C   0  0  0  0  0  0  0  0  0  0  0  0
   -2.8858    2.6711    0.5838 C   0  0  0  0  0  0  0  0  0  0  0  0
    2.9331   -1.7326    0.5912 C   0  0  0  0  0  0  0  0  0  0  0  0
    1.8343   -1.2456    2.6705 C   0  0  0  0  0  0  0  0  0  0  0  0
    0.0781    0.5696   -0.2655 C   0  0  0  0  0  0  0  0  0  0  0  0
   -0.9458    1.2411    0.3559 N   0  0  0  0  0  0  0  0  0  0  0  0
    0.2833    0.6156   -1.4784 O   0  0  0  0  0  0  0  0  0  0  0  0
   -0.0984    0.2137    2.6893 O   0  0  0  0  0  0  0  0  0  0  0  0
   -5.1463    4.8020   -1.9577 Cl  0  0  0  0  0  0  0  0  0  0  0  0
   -2.8788    2.3782    2.3205 Cl  0  0  0  0  0  0  0  0  0  0  0  0
    4.4737   -2.7190   -0.4920 I   0  0  0  0  0  0  0  0  0  0  0  0
    1.6969   -1.4922    4.7862 I   0  0  0  0  0  0  0  0  0  0  0  0
   -1.2336    1.8938   -2.2700 H   0  0  0  0  0  0  0  0  0  0  0  0
   -2.9840    3.3738   -3.2110 H   0  0  0  0  0  0  0  0  0  0  0  0
    2.0607   -0.7840   -1.1501 H   0  0  0  0  0  0  0  0  0  0  0  0
   -4.6093    3.9501    0.7338 H   0  0  0  0  0  0  0  0  0  0  0  0
    3.5607   -2.5247    2.5055 H   0  0  0  0  0  0  0  0  0  0  0  0
   -1.0193    1.1298    1.3626 H   0  0  0  0  0  0  0  0  0  0  0  0
   -0.0421    0.0128    3.6448 H   0  0  0  0  0  0  0  0  0  0  0  0
  1  2  1  0  0  0  0
  1  7  2  0  0  0  0
  1 21  1  0  0  0  0
  2  9  2  0  0  0  0
  2 22  1  0  0  0  0
  3  6  1  0  0  0  0
  3 11  2  0  0  0  0
  3 23  1  0  0  0  0
  4  9  1  0  0  0  0
  4 10  2  0  0  0  0
  4 24  1  0  0  0  0
  5 11  1  0  0  0  0
  5 12  2  0  0  0  0
  5 25  1  0  0  0  0
  6  8  2  0  0  0  0
  6 13  1  0  0  0  0
  7 10  1  0  0  0  0
  7 14  1  0  0  0  0
  8 12  1  0  0  0  0
  8 16  1  0  0  0  0
  9 17  1  0  0  0  0
 10 18  1  0  0  0  0
 11 19  1  0  0  0  0
 12 20  1  0  0  0  0
 13 14  1  0  0  0  0
 13 15  2  0  0  0  0
 14 26  1  0  0  0  0
 16 27  1  0  0  0  0
M  END
$$$$
