29
0 1 C14H10IN3S
C                     0.840212334798    -2.704130361092   -11.330602187030
C                     0.501611221452     0.259284323479    -1.656478839886
C                     0.251969358726    -0.737292600885    -0.697242527502
C                     1.095932178796    -1.388542262633   -11.738651099310
C                     0.675671904409    -2.991137267910    -9.981009129262
C                     0.566735579073    -0.051965376716    -3.014718356936
C                     0.062247924932    -2.068323778427    -1.080977233939
C                     1.184385536003    -0.371270963844   -10.787535418690
C                     0.759348363061    -1.984322537263    -8.994754705993
C                     0.379091028244    -1.380823667963    -3.418331801088
C                     0.128154004296    -2.375516234614    -2.440566888433
C                     1.017391517268    -0.669091993261    -9.430515570441
C                     0.207970030527    -3.110636510132    -4.790622608240
C                     0.581745854698    -2.312774047584    -7.573880874686
N                     0.417356091645    -1.830154033121    -4.732934280534
N                     0.347269935659    -3.538934811720    -7.235749453740
N                     0.176767397931    -3.882154604929    -5.925930021890
S                    -0.066218230417    -3.940323356749    -3.223745969286
I                     1.174284929496     0.970815921569    -8.062997470762
H                     0.770282058543    -3.500283147325   -12.066899082784
H                     0.645914804032     1.287053667320    -1.334788536825
H                     0.205120898091    -0.474266264262     0.355771723184
H                     1.226472571224    -1.151456695595   -12.791117519288
H                     0.477077306523    -4.005218268423    -9.649377814249
H                     0.758892577438     0.708592950037    -3.765716875124
H                    -0.130518966043    -2.836547147117    -0.337748979284
H                     1.382293362414     0.648795835271   -11.099674565233
H                     0.652478427106    -1.513787035837    -6.843261574143
H                     0.001777098784    -4.871016929911    -5.813981487576
