
  -OEChem-12102412493D

 14 14  0     0  0  0  0  0  0999 V2000
    1.8371   -1.1117   -0.1137 C   0  0  0  0  0  0  0  0  0  0  0  0
    0.7880   -0.4783    0.5516 C   0  0  0  0  0  0  0  0  0  0  0  0
    2.8938   -1.6477    2.0310 C   0  0  0  0  0  0  0  0  0  0  0  0
    1.8145   -0.9978    2.6649 C   0  0  0  0  0  0  0  0  0  0  0  0
    2.8722   -1.6862    0.6214 C   0  0  0  0  0  0  0  0  0  0  0  0
    0.7682   -0.4161    1.9475 C   0  0  0  0  0  0  0  0  0  0  0  0
    4.0059   -2.2662    2.8148 C   0  0  0  0  0  0  0  0  0  0  0  0
    4.0905   -2.2722    4.0287 O   0  0  0  0  0  0  0  0  0  0  0  0
    1.7864   -0.9329    3.9981 F   0  0  0  0  0  0  0  0  0  0  0  0
    4.1567   -2.4650   -0.2872 Cl  0  0  0  0  0  0  0  0  0  0  0  0
   -0.8194    0.5430    2.9635 I   0  0  0  0  0  0  0  0  0  0  0  0
    1.8503   -1.1586   -1.1972 H   0  0  0  0  0  0  0  0  0  0  0  0
   -0.0180   -0.0309   -0.0208 H   0  0  0  0  0  0  0  0  0  0  0  0
    4.7846   -2.7415    2.1927 H   0  0  0  0  0  0  0  0  0  0  0  0
  1  2  1  0  0  0  0
  1  5  2  0  0  0  0
  1 12  1  0  0  0  0
  2  6  2  0  0  0  0
  2 13  1  0  0  0  0
  3  4  2  0  0  0  0
  3  5  1  0  0  0  0
  3  7  1  0  0  0  0
  4  6  1  0  0  0  0
  4  9  1  0  0  0  0
  5 10  1  0  0  0  0
  6 11  1  0  0  0  0
  7  8  2  0  0  0  0
  7 14  1  0  0  0  0
M  END
$$$$
