27
0 1 C13Cl2H7I2NO2
C                    -2.175921608219     3.305703268767     0.346722586502
C                    -3.271217805968     4.048355598696    -0.093690798690
C                     0.610361530415    -1.802391523362     1.098119866178
C                    -3.326685113419     2.711281127448    -2.124495314911
C                     2.936934926830    -1.927930720182     1.749481263693
C                     0.711727732332    -0.421315781834     0.880962260918
C                    -1.633140749034     2.273998613931    -0.427143864460
C                     1.949841233796     0.217129886957     1.108971899032
C                    -3.841346411106     3.734341646089    -1.328207503821
C                    -2.216301030915     1.994508828144    -1.674340798582
C                     1.705109119566    -2.547513121159     1.524181118733
C                     3.044141678788    -0.553614010997     1.541647035913
C                    -0.567800796922     0.240953910657     0.409923432589
N                    -0.499179572792     1.562593214022     0.046435750037
O                    -1.611088431802    -0.401973666854     0.345916199810
O                     2.053650345264     1.566504780836     0.913838643990
Cl                   -5.229139438185     4.641952742160    -1.898014247504
Cl                   -1.542952748930     0.765106615462    -2.712639382470
I                     1.514628718649    -4.641801598565     1.835570749259
I                     4.921794758882     0.403010827728     1.889712653009
H                    -1.734473046567     3.512872818219     1.317440197530
H                    -3.684513954800     4.844907014122     0.515815898859
H                    -0.357061629677    -2.257560946281     0.918371179093
H                    -3.769685233237     2.481777315146    -3.087116461697
H                     3.796139103629    -2.499621429987     2.081359222912
H                     0.365613091068     2.067689527790     0.198838749667
H                     2.971006361379     1.854423010187     1.094595937546
