14
0 1 BrC6H3INO2
C                     1.879815689768    -1.033470990156    -0.127127675679
C                     0.801395223148    -0.460074964455     0.546229591735
C                     2.915543588977    -1.627761869067     0.593504706788
C                     0.788378818459    -0.497266999350     1.935858715566
C                     2.880203425606    -1.652881699587     1.992071099238
C                     1.806177288877    -1.082926034853     2.697579395938
N                    -0.380826914707     0.126406867525     2.597814516011
O                    -1.356719513723    -0.595760023018     2.800571097951
O                    -0.295717417710     1.325444135135     2.862315875900
Br                    4.344956715890    -2.489387888872     2.885146750394
I                     1.688023770761    -1.085206455249     4.809444023429
H                     1.914900149419    -1.018222817623    -1.212041136091
H                    -0.018238785788     0.009096826132     0.010945088667
H                     3.757209282525    -2.075526303606     0.076291309126
