
  -OEChem-12102412493D

 27 28  0     0  0  0  0  0  0999 V2000
   -2.1759    3.3057    0.3467 C   0  0  0  0  0  0  0  0  0  0  0  0
   -3.2712    4.0484   -0.0937 C   0  0  0  0  0  0  0  0  0  0  0  0
    0.6104   -1.8024    1.0981 C   0  0  0  0  0  0  0  0  0  0  0  0
   -3.3267    2.7113   -2.1245 C   0  0  0  0  0  0  0  0  0  0  0  0
    2.9369   -1.9279    1.7495 C   0  0  0  0  0  0  0  0  0  0  0  0
    0.7117   -0.4213    0.8810 C   0  0  0  0  0  0  0  0  0  0  0  0
   -1.6331    2.2740   -0.4271 C   0  0  0  0  0  0  0  0  0  0  0  0
    1.9498    0.2171    1.1090 C   0  0  0  0  0  0  0  0  0  0  0  0
   -3.8413    3.7343   -1.3282 C   0  0  0  0  0  0  0  0  0  0  0  0
   -2.2163    1.9945   -1.6743 C   0  0  0  0  0  0  0  0  0  0  0  0
    1.7051   -2.5475    1.5242 C   0  0  0  0  0  0  0  0  0  0  0  0
    3.0441   -0.5536    1.5416 C   0  0  0  0  0  0  0  0  0  0  0  0
   -0.5678    0.2410    0.4099 C   0  0  0  0  0  0  0  0  0  0  0  0
   -0.4992    1.5626    0.0464 N   0  0  0  0  0  0  0  0  0  0  0  0
   -1.6111   -0.4020    0.3459 O   0  0  0  0  0  0  0  0  0  0  0  0
    2.0537    1.5665    0.9138 O   0  0  0  0  0  0  0  0  0  0  0  0
   -5.2291    4.6420   -1.8980 Cl  0  0  0  0  0  0  0  0  0  0  0  0
   -1.5430    0.7651   -2.7126 Cl  0  0  0  0  0  0  0  0  0  0  0  0
    1.5146   -4.6418    1.8356 I   0  0  0  0  0  0  0  0  0  0  0  0
    4.9218    0.4030    1.8897 I   0  0  0  0  0  0  0  0  0  0  0  0
   -1.7345    3.5129    1.3174 H   0  0  0  0  0  0  0  0  0  0  0  0
   -3.6845    4.8449    0.5158 H   0  0  0  0  0  0  0  0  0  0  0  0
   -0.3571   -2.2576    0.9184 H   0  0  0  0  0  0  0  0  0  0  0  0
   -3.7697    2.4818   -3.0871 H   0  0  0  0  0  0  0  0  0  0  0  0
    3.7961   -2.4996    2.0814 H   0  0  0  0  0  0  0  0  0  0  0  0
    0.3656    2.0677    0.1988 H   0  0  0  0  0  0  0  0  0  0  0  0
    2.9710    1.8544    1.0946 H   0  0  0  0  0  0  0  0  0  0  0  0
  1  2  1  0  0  0  0
  1  7  2  0  0  0  0
  1 21  1  0  0  0  0
  2  9  2  0  0  0  0
  2 22  1  0  0  0  0
  3  6  1  0  0  0  0
  3 11  2  0  0  0  0
  3 23  1  0  0  0  0
  4  9  1  0  0  0  0
  4 10  2  0  0  0  0
  4 24  1  0  0  0  0
  5 11  1  0  0  0  0
  5 12  2  0  0  0  0
  5 25  1  0  0  0  0
  6  8  2  0  0  0  0
  6 13  1  0  0  0  0
  7 10  1  0  0  0  0
  7 14  1  0  0  0  0
  8 12  1  0  0  0  0
  8 16  1  0  0  0  0
  9 17  1  0  0  0  0
 10 18  1  0  0  0  0
 11 19  1  0  0  0  0
 12 20  1  0  0  0  0
 13 14  1  0  0  0  0
 13 15  2  0  0  0  0
 14 26  1  0  0  0  0
 16 27  1  0  0  0  0
M  END
$$$$
