
  -OEChem-12122420533D

 53 55  0     0  0  0  0  0  0999 V2000
   -1.8266   -5.7299    0.8316 C   0  0  0  0  0  0  0  0  0  0  0  0
   -0.1425   -5.7840    1.5064 S   0  0  0  0  0  0  0  0  0  0  0  0
    0.6455   -6.6226    0.5829 O   0  0  0  0  0  0  0  0  0  0  0  0
   -0.2574   -6.1887    2.9200 O   0  0  0  0  0  0  0  0  0  0  0  0
    0.4054   -4.0805    1.3277 C   0  0  0  0  0  0  0  0  0  0  0  0
    1.1828   -3.8253    0.1932 C   0  0  0  0  0  0  0  0  0  0  0  0
    1.5608   -2.5213   -0.0980 C   0  0  0  0  0  0  0  0  0  0  0  0
    1.2000   -1.4604    0.7387 C   0  0  0  0  0  0  0  0  0  0  0  0
    0.4323   -1.7521    1.8747 C   0  0  0  0  0  0  0  0  0  0  0  0
    0.0074   -3.0467    2.2040 C   0  0  0  0  0  0  0  0  0  0  0  0
   -0.8059   -3.3038    3.4532 C   0  0  0  0  0  0  0  0  0  0  0  0
    0.0914   -3.5856    4.5228 O   0  0  0  0  0  0  0  0  0  0  0  0
   -0.4692   -4.3780    5.5664 C   0  0  0  0  0  0  0  0  0  0  0  0
   -1.4322   -3.5772    6.4538 C   0  0  0  0  0  0  0  0  0  0  0  0
   -1.9321   -4.4252    7.6338 C   0  0  0  0  0  0  0  0  0  0  0  0
   -0.7621   -4.9916    8.4517 C   0  0  0  0  0  0  0  0  0  0  0  0
    0.2085   -5.7793    7.5590 C   0  0  0  0  0  0  0  0  0  0  0  0
    0.7001   -4.9329    6.3765 C   0  0  0  0  0  0  0  0  0  0  0  0
    0.0254   -0.4075    2.9414 Cl  0  0  0  0  0  0  0  0  0  0  0  0
    1.4203   -0.0330    0.2340 C   0  0  0  0  0  0  0  0  0  0  0  0
    2.5696    0.7176    0.6839 C   0  0  0  0  0  0  0  0  0  0  0  0
    3.4789    0.0923    1.6218 C   0  0  0  0  0  0  0  0  0  0  0  0
    3.3889   -1.0923    2.0060 O   0  0  0  0  0  0  0  0  0  0  0  0
    4.6442    0.9127    2.1811 C   0  0  0  0  0  0  0  0  0  0  0  0
    4.3712    2.4139    2.1910 C   0  0  0  0  0  0  0  0  0  0  0  0
    3.9827    2.8575    0.7837 C   0  0  0  0  0  0  0  0  0  0  0  0
    2.7998    2.0722    0.1894 C   0  0  0  0  0  0  0  0  0  0  0  0
    2.1353    2.6390   -0.6888 O   0  0  0  0  0  0  0  0  0  0  0  0
    0.5394    0.3268   -0.5604 O   0  5  0  0  0  0  0  0  0  0  0  0
   -2.4348   -5.0488    1.4285 H   0  0  0  0  0  0  0  0  0  0  0  0
   -1.7706   -5.3934   -0.2044 H   0  0  0  0  0  0  0  0  0  0  0  0
   -2.2160   -6.7488    0.8915 H   0  0  0  0  0  0  0  0  0  0  0  0
    1.4772   -4.6501   -0.4468 H   0  0  0  0  0  0  0  0  0  0  0  0
    2.1539   -2.3095   -0.9830 H   0  0  0  0  0  0  0  0  0  0  0  0
   -1.4156   -2.4236    3.6814 H   0  0  0  0  0  0  0  0  0  0  0  0
   -1.4814   -4.1533    3.3113 H   0  0  0  0  0  0  0  0  0  0  0  0
   -1.0104   -5.2229    5.1143 H   0  0  0  0  0  0  0  0  0  0  0  0
   -0.9017   -2.6902    6.8234 H   0  0  0  0  0  0  0  0  0  0  0  0
   -2.2818   -3.2172    5.8613 H   0  0  0  0  0  0  0  0  0  0  0  0
   -2.5928   -3.8280    8.2746 H   0  0  0  0  0  0  0  0  0  0  0  0
   -2.5383   -5.2585    7.2505 H   0  0  0  0  0  0  0  0  0  0  0  0
   -0.2214   -4.1610    8.9269 H   0  0  0  0  0  0  0  0  0  0  0  0
   -1.1385   -5.6288    9.2623 H   0  0  0  0  0  0  0  0  0  0  0  0
    1.0637   -6.1337    8.1473 H   0  0  0  0  0  0  0  0  0  0  0  0
   -0.3000   -6.6754    7.1766 H   0  0  0  0  0  0  0  0  0  0  0  0
    1.3360   -5.5199    5.7073 H   0  0  0  0  0  0  0  0  0  0  0  0
    1.3011   -4.0893    6.7402 H   0  0  0  0  0  0  0  0  0  0  0  0
    4.8598    0.5164    3.1779 H   0  0  0  0  0  0  0  0  0  0  0  0
    5.5251    0.7009    1.5573 H   0  0  0  0  0  0  0  0  0  0  0  0
    3.5482    2.6304    2.8846 H   0  0  0  0  0  0  0  0  0  0  0  0
    5.2487    2.9686    2.5496 H   0  0  0  0  0  0  0  0  0  0  0  0
    3.7093    3.9160    0.7396 H   0  0  0  0  0  0  0  0  0  0  0  0
    4.8385    2.7220    0.1060 H   0  0  0  0  0  0  0  0  0  0  0  0
  1  2  1  0  0  0  0
  1 30  1  0  0  0  0
  1 31  1  0  0  0  0
  1 32  1  0  0  0  0
  2  3  2  0  0  0  0
  2  4  2  0  0  0  0
  2  5  1  0  0  0  0
  5  6  2  0  0  0  0
  5 10  1  0  0  0  0
  6  7  1  0  0  0  0
  6 33  1  0  0  0  0
  7  8  2  0  0  0  0
  7 34  1  0  0  0  0
  8  9  1  0  0  0  0
  8 20  1  0  0  0  0
  9 10  2  0  0  0  0
  9 19  1  0  0  0  0
 10 11  1  0  0  0  0
 11 12  1  0  0  0  0
 11 35  1  0  0  0  0
 11 36  1  0  0  0  0
 12 13  1  0  0  0  0
 13 14  1  0  0  0  0
 13 18  1  0  0  0  0
 13 37  1  0  0  0  0
 14 15  1  0  0  0  0
 14 38  1  0  0  0  0
 14 39  1  0  0  0  0
 15 16  1  0  0  0  0
 15 40  1  0  0  0  0
 15 41  1  0  0  0  0
 16 17  1  0  0  0  0
 16 42  1  0  0  0  0
 16 43  1  0  0  0  0
 17 18  1  0  0  0  0
 17 44  1  0  0  0  0
 17 45  1  0  0  0  0
 18 46  1  0  0  0  0
 18 47  1  0  0  0  0
 20 21  2  0  0  0  0
 20 29  1  0  0  0  0
 21 22  1  0  0  0  0
 21 27  1  0  0  0  0
 22 23  2  0  0  0  0
 22 24  1  0  0  0  0
 24 25  1  0  0  0  0
 24 48  1  0  0  0  0
 24 49  1  0  0  0  0
 25 26  1  0  0  0  0
 25 50  1  0  0  0  0
 25 51  1  0  0  0  0
 26 27  1  0  0  0  0
 26 52  1  0  0  0  0
 26 53  1  0  0  0  0
 27 28  2  0  0  0  0
M  CHG  1  29  -1
M  END
$$$$
