53
-1 1 C21ClH24O6S
C                    -1.826630220908    -5.729860027932     0.831635975620
S                    -0.142548180062    -5.783971736831     1.506404765035
O                     0.645492864583    -6.622554269322     0.582882093421
O                    -0.257383423686    -6.188701215721     2.919982290377
C                     0.405385875593    -4.080527810945     1.327675574889
C                     1.182790643516    -3.825305695157     0.193151115965
C                     1.560814305451    -2.521284013495    -0.098020606005
C                     1.200045440156    -1.460391991634     0.738681331223
C                     0.432291509862    -1.752084614482     1.874691291121
C                     0.007369163083    -3.046698499025     2.204023040106
C                    -0.805857875109    -3.303829351720     3.453173791741
O                     0.091373817440    -3.585587243950     4.522849197489
C                    -0.469234741508    -4.378018792536     5.566415528838
C                    -1.432206346485    -3.577234171096     6.453790322153
C                    -1.932141563167    -4.425151156744     7.633823095135
C                    -0.762072863681    -4.991592068779     8.451730568169
C                     0.208499699873    -5.779312066903     7.558959733670
C                     0.700124759973    -4.932888583387     6.376537651497
Cl                    0.025356473276    -0.407493646633     2.941411146895
C                     1.420289550873    -0.032990235548     0.234010079049
C                     2.569633183657     0.717636636193     0.683859815764
C                     3.478895757134     0.092316715978     1.621811975139
O                     3.388920465101    -1.092332937663     2.006039615440
C                     4.644242015691     0.912665055939     2.181139718858
C                     4.371182309817     2.413861701200     2.190965232593
C                     3.982684283510     2.857454097319     0.783746977960
C                     2.799833213248     2.072214537994     0.189379029680
O                     2.135314438235     2.638960409563    -0.688819687924
O                     0.539397575272     0.326841213486    -0.560389125034
H                    -2.434761475759    -5.048844719596     1.428468037582
H                    -1.770616379233    -5.393394319259    -0.204359258623
H                    -2.216002574969    -6.748756916778     0.891513657616
H                     1.477216757705    -4.650061377477    -0.446758299325
H                     2.153915398198    -2.309525259351    -0.983004269759
H                    -1.415562103928    -2.423630540055     3.681429275004
H                    -1.481368062963    -4.153335281904     3.311328380182
H                    -1.010444388886    -5.222942111577     5.114327377814
H                    -0.901659873907    -2.690172973488     6.823383571985
H                    -2.281783810845    -3.217197935773     5.861268879540
H                    -2.592804784774    -3.827964583094     8.274575452679
H                    -2.538264839217    -5.258470286319     7.250506385776
H                    -0.221406951179    -4.160994989734     8.926854570481
H                    -1.138534442116    -5.628776639484     9.262282017591
H                     1.063710493770    -6.133734266489     8.147284250658
H                    -0.300015855399    -6.675370711163     7.176594394976
H                     1.336013566192    -5.519939773004     5.707253339363
H                     1.301078863692    -4.089301685517     6.740207540346
H                     4.859793589283     0.516423161459     3.177920926793
H                     5.525062938668     0.700912778924     1.557258276930
H                     3.548217696559     2.630391876916     2.884598850894
H                     5.248680460295     2.968637002169     2.549648647543
H                     3.709348262464     3.916039695015     0.739594447667
H                     4.838481204669     2.722013354583     0.105960460250
