7    
torsion grid (-165,)
C        1.0822241306   -0.3256967233    0.7656620480
N       -0.0515007590   -0.5411835876    0.2175325977
O       -1.5090485846   -2.1440173974   -0.5073455041
O       -0.4357767233   -1.8778695923    0.4112245661
H        1.4587259807    0.6917530940    0.7031234712
H        1.6546845162   -1.0898233891    1.2959160822
H       -1.0185787496   -2.3525238451   -1.3268049986
7    
torsion grid (-150,)
C        1.0647138748   -0.3393684626    0.7367288249
N       -0.1290427603   -0.4857856299    0.3057274564
O       -1.4724745657   -2.1269140312   -0.5546342111
O       -0.5376068075   -1.8268723031    0.4960470807
H        1.4685482893    0.6695159087    0.7002227277
H        1.6583826857   -1.1531029022    1.1593378105
H       -0.8717909052   -2.3768340203   -1.2841214266
7    
torsion grid (-135,)
C        1.0375349003   -0.3553190744    0.7060016394
N       -0.1999937521   -0.4319582964    0.3996381165
O       -1.4154769973   -2.1046627196   -0.5958222462
O       -0.6355087676   -1.7823956349    0.5695016280
H        1.4793587442    0.6389949797    0.6893004847
H        1.6352786415   -1.2167578501    1.0131261597
H       -0.7204629580   -2.3872628451   -1.2224375196
7    
torsion grid (-120,)
C        1.0039577444   -0.3719245915    0.6757763111
N       -0.2600923211   -0.3841620970    0.5003925114
O       -1.3410136502   -2.0718893302   -0.6339168522
O       -0.7295587142   -1.7446818057    0.6279263614
H        1.4877312553    0.6038123979    0.6709193903
H        1.5922881467   -1.2739864933    0.8618904386
H       -0.5725826498   -2.3965295209   -1.1436798980
7    
torsion grid (-105,)
C        0.9710263694   -0.3883496574    0.6503290895
N       -0.3022622270   -0.3450269895    0.6079622113
O       -1.2536617949   -2.0213182234   -0.6759769720
O       -0.8194286192   -1.7067149059    0.6628342105
H        1.4916552630    0.5687640691    0.6643805229
H        1.5411724365   -1.3198987559    0.7019468393
H       -0.4477716167   -2.4268169777   -1.0521676390
7    
torsion grid (-90,)
C        0.9454679211   -0.3923498921    0.6341182761
N       -0.3231429787   -0.3178881736    0.7154055653
O       -1.1481832593   -1.9578094452   -0.7294930474
O       -0.8995025020   -1.6600231210    0.6653878982
H        1.4955145506    0.5462215328    0.6976001462
H        1.4940036480   -1.3314972996    0.5206699231
H       -0.3834275687   -2.5260150421   -0.9443804990
7    
torsion grid (-75,)
C        0.9334463394   -0.3828315877    0.6254980034
N       -0.3246787112   -0.3133178300    0.8088274037
O       -1.0153840848   -1.9101850375   -0.7805804338
O       -0.9583316785   -1.6062287608    0.6446060833
H        1.4954896954    0.5389783239    0.7689516726
H        1.4614303437   -1.2905428301    0.3231262922
H       -0.4112420929   -2.6752337185   -0.8311207589
7    
torsion grid (-60,)
C        0.9305911434   -0.3786997967    0.6204341943
N       -0.3192146545   -0.3261375106    0.8662471235
O       -0.8845820168   -1.9051545800   -0.8109056302
O       -1.0184475872   -1.5362371156    0.6059313625
H        1.5028857331    0.5143934811    0.8626482494
H        1.4305685883   -1.2259629222    0.1473867696
H       -0.4610713954   -2.7815629967   -0.7324338066
7    
torsion grid (-45,)
C        0.9314296611   -0.3772445664    0.6122171004
N       -0.3117652105   -0.3515877750    0.9011074151
O       -0.7776377831   -1.9289129564   -0.8201832102
O       -1.0716600767   -1.4606608249    0.5561471846
H        1.5129379348    0.4746777853    0.9549437979
H        1.4014566076   -1.1455948847   -0.0018339905
H       -0.5040313222   -2.8500382186   -0.6430900348
7    
torsion grid (-30,)
C        0.9308535984   -0.3739059792    0.5998876631
N       -0.3025772596   -0.3840069845    0.9309807885
O       -0.6941222049   -1.9604700563   -0.8172691074
O       -1.1105811183   -1.3945061333    0.4997439865
H        1.5236244181    0.4288587669    1.0287729512
H        1.3718238690   -1.0636073649   -0.1175727863
H       -0.5382914916   -2.8917236894   -0.5652352331
7    
torsion grid (-15,)
C        0.9288592394   -0.3660250785    0.5872727479
N       -0.2913606348   -0.4209431116    0.9596327177
O       -0.6281495860   -1.9945778299   -0.8082377280
O       -1.1362099854   -1.3391743763    0.4366633160
H        1.5351894178    0.3840305547    1.0860150760
H        1.3451961779   -0.9835440130   -0.2050040717
H       -0.5727948179   -2.9191275862   -0.4970337954
7    
torsion grid (0,)
C        0.8500139651   -0.3536117797    0.7145536205
N        0.9740918195   -0.8434526344   -0.4580144751
O       -0.8303940888   -2.3030415378    0.1265608761
O        0.1754405581   -1.8460928516   -0.8835359530
H        1.5430428233    0.4447597852    0.9618483329
H        0.1154707923   -0.7014048577    1.4362708935
H       -1.6469360584   -2.0365175648   -0.3383750323
7    
torsion grid (15,)
C        0.8641256376   -0.3611748165    0.7218887804
N        0.9309512923   -0.8157659543   -0.4693550980
O       -0.8787397389   -2.2618483210    0.1347345022
O        0.2061302548   -1.9060111600   -0.8288844729
H        1.5068815157    0.4885018506    0.9321843049
H        0.2001603669   -0.7627105468    1.4836904926
H       -1.6487795174   -2.0203524928   -0.4149502467
7    
torsion grid (30,)
C        0.8791576755   -0.3661154565    0.7259966567
N        0.8844362795   -0.7919843589   -0.4776525203
O       -0.9304119405   -2.2267891363    0.1292278051
O        0.2317584322   -1.9698981039   -0.7600088405
H        1.4593595149    0.5347418136    0.9060235220
H        0.3033824812   -0.8252313553    1.5276297190
H       -1.6469526317   -1.9940848434   -0.4919080795
7    
torsion grid (45,)
C        0.8944776132   -0.3673038584    0.7277681838
N        0.8340505253   -0.7715927921   -0.4810626242
O       -0.9888978473   -2.1918697482    0.1112283707
O        0.2485948608   -2.0354045563   -0.6705900090
H        1.4005371502    0.5826295453    0.8833923064
H        0.4349379838   -0.8897663525    1.5667247648
H       -1.6429704750   -1.9660536787   -0.5781527300
7    
torsion grid (60,)
C        0.9110783167   -0.3615927753    0.7296557679
N        0.7760937728   -0.7585887987   -0.4742884614
O       -1.0579617067   -2.1552039584    0.0820333616
O        0.2528254611   -2.0949838935   -0.5553005139
H        1.3431941730    0.6288458248    0.8618259675
H        0.5899389011   -0.9390848665    1.5978347879
H       -1.6344391070   -1.9587529731   -0.6824526471
7    
torsion grid (75,)
C        0.9352736032   -0.3535500021    0.7412512730
N        0.6943148425   -0.7391559422   -0.4489612766
O       -1.1362012988   -2.1296754879    0.0338089406
O        0.2327152181   -2.1212869906   -0.4423707617
H        1.3158566259    0.6611958989    0.8528017987
H        0.7659440745   -0.9764708418    1.6215823650
H       -1.6271732544   -1.9804180751   -0.7988040763
7    
torsion grid (90,)
C        0.9649939337   -0.3379517746    0.7578415007
N        0.5996174982   -0.7231094947   -0.4004037349
O       -1.2209313062   -2.1207224724   -0.0276852650
O        0.1923579284   -2.1236948203   -0.3275150331
H        1.3262688253    0.6869429003    0.8394106829
H        0.9293284099   -0.9816844466    1.6389393133
H       -1.6109054783   -2.0391413324   -0.9212792013
7    
torsion grid (105,)
C        0.9966765645   -0.3223719567    0.7775035157
N        0.4954034341   -0.7009820811   -0.3315078294
O       -1.3025166380   -2.1305537416   -0.0988134645
O        0.1336370808   -2.1057647124   -0.2220159168
H        1.3590270008    0.7041022855    0.8241239652
H        1.0821312851   -0.9786614811    1.6457587009
H       -1.5836289164   -2.1051297533   -1.0357407087
7    
torsion grid (120,)
C        1.0260021940   -0.3093039416    0.7945220849
N        0.3901232367   -0.6789914237   -0.2473159493
O       -1.3752714872   -2.1493214413   -0.1729003332
O        0.0618344151   -2.0769401284   -0.1182974570
H        1.3967297784    0.7144850866    0.8020477611
H        1.2202063057   -0.9736563013    1.6387654681
H       -1.5388946316   -2.1656332909   -1.1375133121
7    
torsion grid (135,)
C        1.0514806058   -0.3021602652    0.8061216279
N        0.2897745580   -0.6599217437   -0.1531016005
O       -1.4363126084   -2.1653828862   -0.2472254459
O       -0.0221666901   -2.0452654719   -0.0120182618
H        1.4244719031    0.7193866310    0.7734953208
H        1.3470209786   -0.9722976242    1.6157763496
H       -1.4735389360   -2.2137200807   -1.2237397276
7    
torsion grid (150,)
C        1.0706053922   -0.3010767383    0.8099948245
N        0.1963678397   -0.6433260366   -0.0549941377
O       -1.4823533275   -2.1739684466   -0.3197839018
O       -0.1158355059   -2.0128563848    0.0983186343
H        1.4382038159    0.7199094420    0.7445177729
H        1.4605928568   -0.9791964287    1.5716976854
H       -1.3868512602   -2.2488468478   -1.2904426151
7    
torsion grid (165,)
C        1.0841937162   -0.3057144239    0.8034445794
N        0.1108109737   -0.6221478275    0.0399895847
O       -1.5126896268   -2.1697439156   -0.3885448375
O       -0.2203366968   -1.9753444455    0.2096500516
H        1.4459885017    0.7155802480    0.7213347847
H        1.5530020896   -0.9986775556    1.5051028507
H       -1.2802391466   -2.2833135206   -1.3316687510
7    
torsion grid (180,)
C        1.0884174098   -0.3145584416    0.7885057417
N        0.0284425257   -0.5881837530    0.1306155225
O       -1.5219630703   -2.1580901411   -0.4517476205
O       -0.3282176165   -1.9294318427    0.3149912828
H        1.4511402188    0.7063242603    0.7079116232
H        1.6189663920   -1.0363425552    1.4130435716
H       -1.1560560484   -2.3190789675   -1.3440118588
