14   
torsion grid (-165,)
C       -0.2736197125    0.8123459644   -2.0412755281
C       -0.4546073776   -0.1050801222   -0.9694487468
C       -1.0325556348    0.4789833073   -3.1412770648
C       -1.3506904100   -1.1149881600   -1.2687441855
C       -1.7304189642   -2.2922542434   -0.4666155844
C       -1.3269306807   -2.2971206177    0.9978068314
O       -2.3294410660   -3.2374987476   -0.9720188089
S       -1.9587593249   -0.9545728303   -2.8960370483
H        0.3832229631    1.6751266684   -2.0048224805
H        0.0544414072   -0.0260286129   -0.0145443728
H       -1.0939480076    1.0082706600   -4.0844253709
H       -1.7435013130   -1.4285369348    1.5180923600
H       -0.2371810231   -2.2512472668    1.0973805163
H       -1.6911453701   -3.2142379540    1.4623288641
14   
torsion grid (-150,)
C       -0.2364873494    0.7906142863   -2.0710384630
C       -0.3905705625   -0.1379796507   -1.0036022183
C       -1.0831776470    0.5178993039   -3.1217596389
C       -1.3587964826   -1.0927951321   -1.2525441736
C       -1.6833279796   -2.3078107269   -0.4759225529
C       -1.3874005179   -2.2758561995    1.0130983677
O       -2.1351538769   -3.3085610159   -1.0232202967
S       -2.0522236365   -0.8804211761   -2.8395023213
H        0.4648723508    1.6183805005   -2.0651777568
H        0.1901669362   -0.1054967170   -0.0876394719
H       -1.1895401738    1.0734640825   -4.0455317639
H       -1.9278022876   -1.4552657760    1.4959331183
H       -0.3186755764   -2.1137766982    1.1902656073
H       -1.6825984385   -3.2276901773    1.4564987638
14   
torsion grid (-135,)
C       -0.1780075103    0.7236823377   -2.1150812016
C       -0.3015570581   -0.2145017828   -1.0503405986
C       -1.1310457728    0.5338031298   -3.0886103816
C       -1.3545346948   -1.0924866702   -1.2209321548
C       -1.6491233186   -2.3311895549   -0.4580831871
C       -1.4810718533   -2.2633044582    1.0479154058
O       -1.9728509287   -3.3657290001   -1.0291850213
S       -2.1611823588   -0.8059720979   -2.7412483052
H        0.5780467627    1.5005928825   -2.1591443120
H        0.3655077478   -0.2452857726   -0.1950359307
H       -1.2869782384    1.1192148717   -3.9864419849
H       -2.2415034732   -1.5989338040    1.4729909669
H       -0.5052872487   -1.8482215079    1.3199667886
H       -1.5866959156   -3.2627890494    1.4722279599
14   
torsion grid (-120,)
C       -0.1410017854    0.7042322236   -2.1552726836
C       -0.2200325342   -0.2596223631   -1.1067711682
C       -1.1770591045    0.5875340580   -3.0502726807
C       -1.3235467732   -1.0812306054   -1.2088634954
C       -1.5776257232   -2.3475242614   -0.4612915594
C       -1.5598623935   -2.2509862350    1.0507393636
O       -1.7322838620   -3.4089133027   -1.0488502090
S       -2.2365710220   -0.7161408550   -2.6483833100
H        0.6448172181    1.4473638589   -2.2414573739
H        0.5154032834   -0.3501572602   -0.3135039122
H       -1.3841603951    1.2080209905   -3.9133657525
H       -2.4208125844   -1.6630065582    1.3883946205
H       -0.6642178452   -1.7241405760    1.3967826976
H       -1.5985854549   -3.2494806368    1.4890873572
14   
torsion grid (-105,)
C       -0.5524964122    0.8445603370   -2.0187051790
C       -1.1450673678   -0.0649323521   -1.0889288642
C       -0.3658736742    0.2818317489   -3.2561709089
C       -1.4151218152   -1.2964546766   -1.6403825376
C       -1.8168231040   -2.5434725292   -0.9060896572
C       -3.2195135779   -2.5591894697   -0.3383076416
O       -1.0245459220   -3.4563701052   -0.7369378749
S       -0.8823487843   -1.3695819896   -3.2960328326
H       -0.2788612195    1.8667515878   -1.7787840548
H       -1.3539561138    0.1787501403   -0.0516879058
H        0.0290297051    0.7471021979   -4.1506184618
H       -3.9457879541   -2.5356336121   -1.1589623913
H       -3.3955163626   -1.6570216101    0.2581718774
H       -3.3733864625   -3.4511782764    0.2714193976
14   
torsion grid (-90,)
C       -0.5000580417    0.8362539929   -2.0417756719
C       -0.9173154623   -0.0855629712   -1.0284655640
C       -0.5656790641    0.3003136409   -3.3010814792
C       -1.2879365318   -1.3051368110   -1.5376543413
C       -1.7648398164   -2.5112652222   -0.7692474907
C       -3.2567078150   -2.5988688720   -0.5319092534
O       -0.9797240062   -3.3504287342   -0.3625348788
S       -1.1312717230   -1.3391725299   -3.2694579991
H       -0.1638325785    1.8481359226   -1.8406178239
H       -0.9336247128    0.1422209557    0.0327900746
H       -0.3078986738    0.7635465549   -4.2450381152
H       -3.7874646970   -2.5801207955   -1.4905383279
H       -3.5922189263   -1.7171287365    0.0259456353
H       -3.5027165296   -3.5086854526    0.0185631040
14   
torsion grid (-75,)
C       -0.4491625392    0.8203708188   -1.9943601420
C       -0.7440424582   -0.0978614638   -0.9381257439
C       -0.7464915095    0.3120508346   -3.2324014576
C       -1.2369859441   -1.2979390364   -1.3913631526
C       -1.7865041692   -2.4130672087   -0.5485150920
C       -3.2899565824   -2.5991745089   -0.5772415540
O       -1.0475530966   -3.1403802093    0.0954182556
S       -1.4008561900   -1.2895554375   -3.1265212730
H       -0.0300028704    1.8093092910   -1.8405507372
H       -0.5909767621    0.1115019250    0.1157274684
H       -0.5913697562    0.7681019059   -4.2020455537
H       -3.6164301853   -2.8289451792   -1.5983780542
H       -3.7912433704   -1.6688094674   -0.2902767433
H       -3.5794186192   -3.4105538936    0.0926624253
14   
torsion grid (-60,)
C       -0.3806091271    0.7973254811   -1.9906487502
C       -0.6382620398   -0.1261217227   -0.9330618412
C       -0.8331020237    0.3454119002   -3.2052901799
C       -1.2578316531   -1.2794128002   -1.3598066650
C       -1.8276033293   -2.3393573271   -0.4745412404
C       -3.3007562837   -2.6566918185   -0.6422690894
O       -1.1176410017   -2.9397652054    0.3196303191
S       -1.5966607053   -1.2019477035   -3.0709014008
H        0.1212827036    1.7501644757   -1.8584859882
H       -0.3755943474    0.0386257782    0.1067642230
H       -0.7331747652    0.8160128432   -4.1753925662
H       -3.4975023501   -3.0101908446   -1.6613856415
H       -3.9041570978   -1.7542422130   -0.4991823767
H       -3.5946848986   -3.4268366937    0.0724636390
14   
torsion grid (-45,)
C       -0.3056315748    0.7842126406   -2.0111180920
C       -0.5570474837   -0.1356684659   -0.9524832815
C       -0.8814288162    0.3925440797   -3.1960931294
C       -1.3000826147   -1.2283289447   -1.3470612200
C       -1.8651170782   -2.2571856944   -0.4338126694
C       -3.2880527561   -2.7168823793   -0.6884375162
O       -1.1824795286   -2.7286454406    0.4671187220
S       -1.7546613029   -1.0895585736   -3.0288622749
H        0.2768601269    1.6933070440   -1.9041496320
H       -0.2097023968   -0.0174702774    0.0684340889
H       -0.8192731022    0.8775742467   -4.1623662248
H       -3.3746166163   -3.1526257829   -1.6910157467
H       -3.9791563087   -1.8685951376   -0.6485420621
H       -3.5674758588   -3.4647815720    0.0548896084
14   
torsion grid (-30,)
C       -0.2408852586    0.7551030732   -2.0422294293
C       -0.5107855940   -0.1501515749   -0.9782813498
C       -0.9151125508    0.4265372514   -3.1958187049
C       -1.3729225594   -1.1669918295   -1.3360940859
C       -1.9360850352   -2.1781798788   -0.4091854378
C       -3.2956150956   -2.7657722627   -0.7382880318
O       -1.3019177907   -2.5312457588    0.5789156779
S       -1.8989835291   -0.9774689200   -2.9925333292
H        0.4214910118    1.6108416451   -1.9636683365
H       -0.0983587451   -0.0786189323    0.0223377156
H       -0.8729961068    0.9227296010   -4.1575678657
H       -3.2945519328   -3.2138771435   -1.7387354688
H       -4.0601295127   -1.9815282459   -0.7375491788
H       -3.5478485136   -3.5284402491   -0.0004857718
14   
torsion grid (-15,)
C       -0.1854698652    0.7259673747   -2.0660882898
C       -0.4698755233   -0.1626618955   -0.9935721073
C       -0.9516061985    0.4680680333   -3.1805752014
C       -1.4424022732   -1.0931799828   -1.3023095053
C       -1.9927744276   -2.1044411830   -0.3714737158
C       -3.2753781446   -2.8149315888   -0.7633107850
O       -1.4132213164   -2.3549667789    0.6803915398
S       -2.0321174312   -0.8537172135   -2.9306960423
H        0.5506666231    1.5218106263   -2.0223836475
H        0.0067726459   -0.1418875987   -0.0196807695
H       -0.9323575991    0.9780103397   -4.1359000705
H       -3.1676096297   -3.3077053968   -1.7362861974
H       -4.0980818966   -2.0970946653   -0.8521181672
H       -3.5206568701   -3.5597473577   -0.0053454737
14   
torsion grid (0,)
C       -0.1408852939    0.6749626008   -2.0772192219
C       -0.4399871959   -0.2006550472   -0.9985707207
C       -0.9891682683    0.5008408799   -3.1480025869
C       -1.5113534865   -1.0332462673   -1.2567250063
C       -2.0595460320   -2.0468083995   -0.3281698311
C       -3.2515624563   -2.8680015416   -0.7851774781
O       -1.5579650401   -2.2042587707    0.7805847578
S       -2.1593106691   -0.7315882886   -2.8525185005
H        0.6635365767    1.4029924158   -2.0693449355
H        0.0945497534   -0.2398910145   -0.0558397593
H       -0.9878402561    1.0303600154   -4.0928405497
H       -3.0276191409   -3.3963664211   -1.7182846296
H       -4.1134247021   -2.2187063015   -0.9763135195
H       -3.5084038886   -3.5904098343   -0.0096318892
14   
torsion grid (15,)
C       -0.1064798712    0.6285310494   -2.0819424680
C       -0.4080273124   -0.2373616705   -0.9956187523
C       -1.0405380749    0.5521146698   -3.0905960101
C       -1.5708556756   -0.9584952901   -1.1821622085
C       -2.1055823261   -1.9836155530   -0.2573903303
C       -3.1933668233   -2.9106882685   -0.7678908101
O       -1.6743239082   -2.0663171595    0.8881758886
S       -2.2896342180   -0.5825232388   -2.7309355724
H        0.7592937519    1.2812237960   -2.1221096034
H        0.1898000911   -0.3471965149   -0.0974983674
H       -1.0648335432    1.1068015583   -4.0205342465
H       -2.8121784445   -3.5282401776   -1.5885815643
H       -4.0442324599   -2.3409470375   -1.1581660355
H       -3.5298637092   -3.5538272422    0.0460949391
14   
torsion grid (30,)
C       -0.0834787616    0.5709950480   -2.1071683095
C       -0.3999018088   -0.2788661811   -1.0108766397
C       -1.0734592346    0.5871089499   -3.0626903573
C       -1.6328279274   -0.8873206650   -1.1334558719
C       -2.1730215049   -1.9205881474   -0.2173057449
C       -3.1444796406   -2.9377055969   -0.7861354268
O       -1.8476593265   -1.9289753445    0.9647555661
S       -2.3922598720   -0.4457117253   -2.6449785643
H        0.8322986605    1.1469506238   -2.1898106572
H        0.2382251684   -0.4530036227   -0.1512779792
H       -1.1067770434    1.1630138691   -3.9792986573
H       -2.6529559478   -3.5433381724   -1.5551111502
H       -3.9966322574   -2.4404249864   -1.2636741182
H       -3.5042227618   -3.5822584663    0.0168471807
14   
torsion grid (45,)
C       -0.0603198427    0.4998441869   -2.1150023324
C       -0.3906854371   -0.3332302827   -1.0072605043
C       -1.0932043327    0.6122050684   -3.0148020473
C       -1.6771762304   -0.8264757239   -1.0631017565
C       -2.2433086766   -1.8538899464   -0.1488017111
C       -3.0842558800   -2.9552157296   -0.7657482824
O       -2.0537410161   -1.7811951591    1.0589878442
S       -2.4706235315   -0.3143769168   -2.5334933932
H        0.8958059548    0.9969746186   -2.2410620051
H        0.2787279821   -0.5701651601   -0.1871316090
H       -1.1307484658    1.2068633811   -3.9191027602
H       -2.5074218463   -3.5049231561   -1.5166317103
H       -3.9535675435   -2.5283660272   -1.2802582530
H       -3.4263481123   -3.6338335608    0.0168199824
14   
torsion grid (60,)
C       -0.0540990933    0.4232992237   -2.1338119141
C       -0.3906637650   -0.4092956042   -1.0242414823
C       -1.1231139546    0.6499188580   -2.9645805121
C       -1.7159667556   -0.7826701891   -1.0095424533
C       -2.3234452782   -1.7980057390   -0.0974804404
C       -3.0170424344   -2.9790306111   -0.7479753058
O       -2.2862147968   -1.6511714754    1.1159010401
S       -2.5475134765   -0.1654444562   -2.4153214015
H        0.9331545475    0.8392475705   -2.3058050130
H        0.3072648076   -0.7230189941   -0.2549239058
H       -1.1650113074    1.2743517201   -3.8482525279
H       -2.3272048162   -3.5076407430   -1.4140251426
H       -3.8517956099   -2.6317392927   -1.3683763656
H       -3.3933566278   -3.6541725759    0.0220464897
14   
torsion grid (75,)
C       -0.0522412250    0.3685800402   -2.1809966277
C       -0.3938760250   -0.4943644471   -1.0927204992
C       -1.1438104593    0.7352046450   -2.9250471589
C       -1.7418168421   -0.7495758374   -1.0120217500
C       -2.4115923972   -1.7288538151   -0.0910236401
C       -2.9348013620   -3.0004588827   -0.7275327898
O       -2.5471716085   -1.4862147977    1.0974303520
S       -2.6022474131    0.0238754761   -2.3155188683
H        0.9565755881    0.7053750817   -2.3959645886
H        0.3227984147   -0.9053411607   -0.3889155422
H       -1.1848208689    1.4050752539   -3.7746622582
H       -2.1291680697   -3.5156145916   -1.2610880570
H       -3.6983781632   -2.7542199965   -1.4748726273
H       -3.3643999045   -3.6515303488    0.0356525780
14   
torsion grid (90,)
C       -0.6167509512    1.0062238956   -2.0669597771
C       -1.1464992173    0.3438662049   -0.9131344937
C       -0.4985146563    0.1705881425   -3.1463653400
C       -1.4240390766   -0.9810427046   -1.1402197030
C       -2.0007134547   -1.9753146262   -0.1647514921
C       -0.9994382748   -2.7365947964    0.6763988590
O       -3.2050988835   -2.1360305541   -0.0667223171
S       -1.0379130622   -1.4354081009   -2.7740127548
H       -0.3410741316    2.0554246278   -2.0914352513
H       -1.3227332470    0.8303094219    0.0411922777
H       -0.1366652241    0.4007282145   -4.1404388180
H       -0.3975266788   -2.0307895684    1.2600972029
H       -0.3014774423   -3.2756716777    0.0257475485
H       -1.5117438925   -3.4344745521    1.3410948275
14   
torsion grid (105,)
C       -0.5742955389    0.9933899857   -2.0431340981
C       -0.9474175825    0.2149029648   -0.9040269786
C       -0.6517359602    0.2810867195   -3.2133632849
C       -1.2838396257   -1.0800868622   -1.2256659665
C       -1.9347347186   -2.0913451457   -0.3261044611
C       -1.0678773021   -2.6561196372    0.7783572092
O       -3.1124630097   -2.3836774401   -0.4572350744
S       -1.2056501215   -1.3366572998   -2.9456452867
H       -0.2638488820    2.0319219780   -1.9942714902
H       -0.9754156704    0.6000322814    0.1107473198
H       -0.3989089237    0.6078884126   -4.2142328117
H       -0.6032125073   -1.8425663667    1.3466088723
H       -0.2480683822   -3.2360315085    0.3389645401
H       -1.6603396228   -3.2892299258    1.4411298976
14   
torsion grid (120,)
C       -0.5328269901    0.9617048465   -2.0104339864
C       -0.8243103336    0.1375058421   -0.8833358749
C       -0.7676641816    0.3184410898   -3.2017029329
C       -1.2573632332   -1.1247082477   -1.2333184448
C       -1.8960050778   -2.1382536000   -0.3434974013
C       -1.1070726396   -2.5484456836    0.8833687652
O       -3.0198246177   -2.5627678583   -0.5726443160
S       -1.3791028888   -1.2796755163   -2.9654519259
H       -0.1669274542    1.9807885614   -1.9413698653
H       -0.7283995899    0.4672726843    0.1464166676
H       -0.5977667599    0.6911462371   -4.2042249703
H       -0.7487589800   -1.6684496678    1.4280788760
H       -0.2184535683   -3.1102629744    0.5740398439
H       -1.7263719544   -3.1653659128    1.5364516876
14   
torsion grid (135,)
C       -0.4874086664    0.9269901153   -2.0007218518
C       -0.7374803760    0.0719920173   -0.8891603606
C       -0.8434062243    0.3447260044   -3.1950123254
C       -1.2639679771   -1.1519893035   -1.2544042832
C       -1.8611442262   -2.1918143065   -0.3796200568
C       -1.1403927905   -2.4870900662    0.9219986226
O       -2.9082104468   -2.7510248943   -0.6832086998
S       -1.5188832402   -1.2281056863   -2.9787464603
H       -0.0651644716    1.9232654076   -1.9213794455
H       -0.5434575414    0.3521043888    0.1410636945
H       -0.7333480784    0.7553046778   -4.1912230572
H       -0.9326243323   -1.5672397001    1.4780277617
H       -0.1742002068   -2.9574644656    0.7085642815
H       -1.7487547797   -3.1561472645    1.5322654180
14   
torsion grid (150,)
C       -0.4157461931    0.9016379166   -1.9870688550
C       -0.6420083591    0.0209014081   -0.8923398293
C       -0.9192988213    0.4021486836   -3.1669799070
C       -1.3014113059   -1.1379796033   -1.2575419813
C       -1.8598177527   -2.1968297957   -0.3906539552
C       -1.2012944433   -2.4005914319    0.9624630738
O       -2.8383148381   -2.8506174076   -0.7374372225
S       -1.6957292632   -1.1233173048   -2.9570942358
H        0.0922700535    1.8570845697   -1.9085061944
H       -0.3328180385    0.2326826674    0.1259449002
H       -0.8669614360    0.8526371855   -4.1506616648
H       -1.2902501414   -1.4948841952    1.5722921415
H       -0.1340412829   -2.6142971306    0.8459624594
H       -1.6929203989   -3.2265844932    1.4780139689
14   
torsion grid (165,)
C       -0.3518482823    0.8641048462   -2.0121997205
C       -0.5657071909   -0.0318940025   -0.9283245065
C       -0.9409386537    0.4194282245   -3.1750733561
C       -1.3066922136   -1.1437346960   -1.2849040577
C       -1.8115506744   -2.2397525517   -0.4379147249
C       -1.2347630908   -2.3568297159    0.9623888908
O       -2.6770619009   -3.0098391109   -0.8449378961
S       -1.7699078890   -1.0779387793   -2.9655316453
H        0.2074463945    1.7909628763   -1.9395475156
H       -0.1895780465    0.1344312262    0.0757094678
H       -0.9252103129    0.8980848097   -4.1467163811
H       -1.4472127819   -1.4532906553    1.5438597457
H       -0.1472848348   -2.4779808653    0.9251261747
H       -1.6844287584   -3.2171739731    1.4594750733
14   
torsion grid (180,)
C       -0.3098013232    0.8464489133   -2.0331948932
C       -0.5085709805   -0.0624513166   -0.9575428201
C       -0.9853134680    0.4588893645   -3.1695044662
C       -1.3294726238   -1.1237158357   -1.2930209898
C       -1.7724036380   -2.2610633422   -0.4683689130
C       -1.2793786311   -2.3167502703    0.9673788466
O       -2.5113576749   -3.1274168789   -0.9287936933
S       -1.8662467483   -1.0067918959   -2.9486222701
H        0.3002086683    1.7417470159   -1.9741859176
H       -0.0651994618    0.0582590310    0.0253324959
H       -1.0077511242    0.9646025577   -4.1272274282
H       -1.5962169558   -1.4262327116    1.5202919212
H       -0.1854612313   -2.3552050722    0.9996845393
H       -1.6882623559   -3.2067780044    1.4471009880
