26   
torsion grid (-165,)
C        4.9894640748    0.9444126145    1.0927843051
C        3.6578196226    0.4831203464    0.9343955703
C        5.7897174979    1.1264740706    0.0016992992
C        3.1529539928    0.2394316478   -0.3237178986
C        5.3027508957    0.8843052272   -1.3363582358
C        0.2862166866   -2.1352808999   -0.0710542910
C        1.2868984496   -1.2326196583    0.6632425480
C        0.8502415292   -2.1080198596   -1.4888173336
C        1.6845797222   -0.1922725178   -0.4179646139
C        3.4004249009    0.4718903117   -2.8130916490
N        3.9240404117    0.5019539433   -1.4334533638
O        5.9848562988    1.0120727047   -2.3594749641
O        1.2916659394   -0.7545882927   -1.6788304764
H        5.3727707405    1.1387551836    2.0920850903
H        3.0388814152    0.2964737285    1.8032688894
H        6.8185845886    1.4609526344    0.0779231541
H       -0.7185472394   -1.7009005634   -0.0578014076
H        0.2360517560   -3.1420583505    0.3524720918
H        2.1641239261   -1.8094469010    0.9684833141
H        0.8653745951   -0.7608282128    1.5533865208
H        1.6977635109   -2.8014654457   -1.5935849808
H        0.1181825965   -2.3244986471   -2.2703903143
H        1.0840147222    0.7190556622   -0.2935769172
H        4.0993416237    1.0395069182   -3.4235568825
H        3.3456639709   -0.5497952621   -3.1917616375
H        2.4077608235    0.9139323881   -2.8475048050
26   
torsion grid (-150,)
C        5.0569853036    0.9279160388    1.0566116402
C        3.7491333361    0.3975109145    0.8957384977
C        5.8053319352    1.2625593142   -0.0343668319
C        3.2238691367    0.2316621463   -0.3649388083
C        5.2863550701    1.1185107527   -1.3764589673
C        0.2284126807   -2.0100904626   -0.0672135863
C        1.2540611833   -1.1114084960    0.6352569425
C        0.9158575084   -2.2464672868   -1.4103074701
C        1.7835978114   -0.2414591956   -0.5218570126
C        3.3654153674    0.6988785744   -2.8219325068
N        3.9399878125    0.6495769223   -1.4657383914
O        5.9168252978    1.3968443075   -2.4028183242
O        1.5688368179   -1.0045201711   -1.7274652170
H        5.4620956050    1.0544925500    2.0581914381
H        3.1758874854    0.0971384676    1.7627100280
H        6.8129220696    1.6562381285    0.0443678631
H       -0.7200216276   -1.4820882050   -0.2110597164
H        0.0300386227   -2.9357761253    0.4795986986
H        2.0616107166   -1.7218913564    1.0496959343
H        0.8254994624   -0.5123067398    1.4417922282
H        1.6623562108   -3.0499060392   -1.3381362553
H        0.2290237005   -2.4770456359   -2.2288466541
H        1.1594823988    0.6615353800   -0.6079123292
H        3.9324110797    1.4405705856   -3.3809443267
H        3.4535827150   -0.2680249870   -3.3192555991
H        2.3140269074    0.9740980431   -2.7742139941
26   
torsion grid (-135,)
C        5.2125243715    0.9363581034    0.4049189880
C        3.9124386405    0.3611221177    0.4002836444
C        5.7892420851    1.3531052975   -0.7594409006
C        3.2253370108    0.2351293207   -0.7829553874
C        5.0990405406    1.2391111545   -2.0261345335
C        0.2342627719   -1.9432147982   -0.0988102972
C        1.3184951023   -1.0111389768    0.4564993725
C        0.8704168761   -2.3921988330   -1.4158208087
C        1.8088119360   -0.3087426651   -0.8166388927
C        3.0477201828    0.6999439986   -3.2318603794
N        3.7781151866    0.7078095458   -1.9539930638
O        5.5726343690    1.5817518640   -3.1154389958
O        1.6504008699   -1.2731756357   -1.8803367502
H        5.7489113520    1.0345934231    1.3461432092
H        3.4696491648    0.0145654440    1.3239885280
H        6.7834748660    1.7849856792   -0.7982816453
H       -0.6924460391   -1.3906919822   -0.2864813281
H        0.0067204818   -2.7790638080    0.5678799409
H        2.1233760531   -1.6055137041    0.8988000419
H        0.9503032194   -0.3069993066    1.2063006752
H        1.5350105141   -3.2531466808   -1.2646386050
H        0.1419903744   -2.6438542733   -2.1920393151
H        1.1347502117    0.5367887742   -1.0306806974
H        3.1888353034   -0.2503663435   -3.7497547119
H        1.9839417158    0.8498295700   -3.0599683069
H        3.4536087029    1.5034312766   -3.8433915716
26   
torsion grid (-120,)
C        5.2441552725    0.7996889815    0.7981664964
C        3.9545301156    0.2060129957    0.7083628588
C        5.8274706671    1.3591039286   -0.3010109733
C        3.3009158410    0.1753741961   -0.4982493218
C        5.1486677848    1.3943773522   -1.5792451409
C        0.1623325708   -1.8544201852    0.0201376747
C        1.2200993943   -0.9192101423    0.6203826389
C        0.9345645049   -2.4840729875   -1.1442789999
C        1.9000049389   -0.3856258537   -0.6431377511
C        3.1927969992    0.8038717887   -2.9113445162
N        3.8826476305    0.7449844301   -1.6121006162
O        5.5931357631    1.9428809668   -2.5942705698
O        1.8961557409   -1.4964639495   -1.5710742267
H        5.7616760165    0.8074498945    1.7548788932
H        3.4936753554   -0.2226631492    1.5873331066
H        6.8051633898    1.8278448422   -0.2698199614
H       -0.6936466575   -1.2796393131   -0.3488526784
H       -0.2068758932   -2.5977786442    0.7313363360
H        1.9233111892   -1.5029534402    1.2208532443
H        0.8049279629   -0.1216061349    1.2409766735
H        1.4780197107   -3.3829129294   -0.8269382265
H        0.2996463470   -2.7420484283   -1.9974445401
H        1.2672150418    0.4111418051   -1.0655030556
H        3.9541219876    0.8297225400   -3.6889648554
H        2.5534275613   -0.0649100673   -3.0373075417
H        2.6074669000    1.7271328620   -2.9854039358
26   
torsion grid (-105,)
C        5.2691573611    0.7495776089    0.7637319775
C        3.9822463488    0.1490799626    0.6808942594
C        5.7978109670    1.4089234494   -0.3077238137
C        3.2740576369    0.2230250588   -0.4912238911
C        5.0740089239    1.5268646935   -1.5562952333
C        0.1463315749   -1.8272154176    0.0116480794
C        1.1433124472   -0.8167154594    0.5957500853
C        0.9983983845   -2.5355082134   -1.0512727660
C        1.8998403331   -0.3902012733   -0.6642670457
C        3.1002502975    0.9168812229   -2.8721969757
N        3.8142704681    0.8651836045   -1.5866144257
O        5.4834524141    2.1411175288   -2.5481694502
O        2.0132004159   -1.5928193778   -1.4577002530
H        5.8295777502    0.6828532787    1.6935742425
H        3.5603322473   -0.3525067052    1.5407654591
H        6.7721157914    1.8848088692   -0.2783095514
H       -0.6978436731   -1.3067307044   -0.4525713747
H       -0.2513286946   -2.5186418063    0.7589417542
H        1.8067071654   -1.3231877929    1.3013371980
H        0.6704170374    0.0273255099    1.1035970148
H        1.5005933680   -3.4212838124   -0.6439711153
H        0.4221008217   -2.8353299614   -1.9325244872
H        1.2692500563    0.3290818928   -1.2073822869
H        3.8351750741    1.1436641330   -3.6420280803
H        2.6247399321   -0.0416503794   -3.0731081580
H        2.3538218221    1.7184950918   -2.8685265390
26   
torsion grid (-90,)
C        5.3766916685    0.7688464752    1.1365487157
C        4.1265972187    0.1316692809    0.9077382630
C        5.9103364898    1.6067498673    0.2001712074
C        3.4588877853    0.3500156882   -0.2699614581
C        5.2382357375    1.8659571480   -1.0553121450
C        0.3630882068   -1.7905719807   -0.0646112092
C        1.2219527052   -0.6880798138    0.5700374440
C        1.3882162001   -2.5309453723   -0.9356248437
C        2.1408728954   -0.3214684139   -0.6003752159
C        3.4043805270    1.2850902405   -2.5722827857
N        4.0209991072    1.1510346349   -1.2434681086
O        5.6600498562    2.6282195527   -1.9329466595
O        2.4078745066   -1.5684423798   -1.2771375114
H        5.9042702615    0.5887996337    2.0705350680
H        3.6972315242   -0.5128663711    1.6627056847
H        6.8563317463    2.1173648911    0.3448227611
H       -0.4251513802   -1.3512215536   -0.6849293308
H       -0.1106132245   -2.4443411825    0.6722908645
H        1.7883197919   -1.0967070376    1.4101549348
H        0.6468297411    0.1698936295    0.9268064177
H        1.8648623386   -3.3537081366   -0.3887545610
H        0.9567732469   -2.9302573256   -1.8591835897
H        1.5692349285    0.3296857740   -1.2732751898
H        4.1664444955    1.6801432751   -3.2411796398
H        3.0631813333    0.3115926389   -2.9249674691
H        2.5699718794    1.9936241135   -2.5512938606
26   
torsion grid (-75,)
C        5.3368454236    0.4392502750    0.9752121411
C        4.0683245206   -0.1384449929    0.7064636418
C        5.8732755955    1.3602510261    0.1211153601
C        3.3846608282    0.2137261187   -0.4300801102
C        5.1862945335    1.7662264317   -1.0850577569
C        0.2658018924   -1.7984124925    0.0373850153
C        1.0429364046   -0.5248948179    0.3988115739
C        1.3737412560   -2.6699723596   -0.5575748021
C        2.0438880532   -0.4176319255   -0.7668421900
C        3.2867377654    1.4309519907   -2.5983487480
N        3.9381905838    1.1123658569   -1.3186131829
O        5.6172968515    2.6024588833   -1.8878263646
O        2.2562723955   -1.7657824256   -1.2456627494
H        5.8784010578    0.1480165175    1.8724411140
H        3.6421021016   -0.8675568108    1.3839326958
H        6.8348552955    1.8299346794    0.2976089935
H       -0.4979828546   -1.5844431799   -0.7176684189
H       -0.2223146331   -2.2621249843    0.8990330228
H        1.5543860836   -0.6503202152    1.3556469621
H        0.4157590085    0.3671812550    0.4710574027
H        1.9311944850   -3.1959857099    0.2304986179
H        1.0152031424   -3.4069522965   -1.2816785133
H        1.5629514254    0.1401753336   -1.5728332753
H        4.0001653263    2.0090159312   -3.1818449677
H        3.0284358487    0.5143683137   -3.1315989830
H        2.3900423512    2.0391623367   -2.4458976144
26   
torsion grid (-60,)
C        5.3764120354    0.2975082117    0.9645696571
C        4.1512846003   -0.3285671780    0.6196808282
C        5.8716773110    1.3173804858    0.2012082518
C        3.4686489352    0.0810124483   -0.4979055948
C        5.1811633191    1.7881833436   -0.9782235880
C        0.2429490941   -1.7372034906   -0.0046011535
C        1.0526418374   -0.4529522817    0.2192813893
C        1.3484182109   -2.7366904720   -0.3551436165
C        2.1464640813   -0.5750639131   -0.8584763468
C        3.2506470276    1.5699809413   -2.4783986732
N        3.9579360430    1.1085758368   -1.2750292218
O        5.5815463376    2.7056623779   -1.7047555823
O        2.3478448714   -1.9879455023   -1.0719855346
H        5.9208670686   -0.0371086207    1.8447780314
H        3.7599278580   -1.1533132456    1.2035659508
H        6.8026626676    1.8222191804    0.4351154537
H       -0.4456159435   -1.6169465089   -0.8476070311
H       -0.3367344462   -2.0377819726    0.8724794712
H        1.4970138811   -0.4443090398    1.2181790366
H        0.4677647350    0.4631731649    0.1024425061
H        1.7970321655   -3.1664588969    0.5517241342
H        1.0129291251   -3.5554233772   -0.9980642673
H        1.7622858131   -0.1635178325   -1.7938675059
H        3.8499335196    2.3688215724   -2.9101220374
H        3.1519855985    0.7590392763   -3.2043139697
H        2.2618604063    1.9619052050   -2.2253141369
26   
torsion grid (-45,)
C        5.4623282790    0.1976280981    0.9204728756
C        4.2827783003   -0.4863417498    0.5276615468
C        5.8741831397    1.3117304554    0.2433989582
C        3.5614244479   -0.0295679090   -0.5457771825
C        5.1390094858    1.8317168689   -0.8873564736
C        0.2332656803   -1.6419473804   -0.0653795216
C        1.0835437068   -0.3679442862    0.0280486306
C        1.3118634376   -2.7244238109   -0.1655775278
C        2.2531014492   -0.7004306882   -0.9195182558
C        3.1690890876    1.6404896348   -2.3419476412
N        3.9529194060    1.1058143097   -1.2203450119
O        5.4674063005    2.8283617506   -1.5422829647
O        2.4089071589   -2.1301592477   -0.8857092931
H        6.0396899272   -0.1697626105    1.7660767434
H        3.9577496191   -1.3908532225    1.0272335471
H        6.7708976572    1.8587801715    0.5133869334
H       -0.3815391662   -1.6284830854   -0.9714891201
H       -0.4262202493   -1.7808978117    0.7954926751
H        1.4577851648   -0.2228528433    1.0457286081
H        0.5521516194    0.5390879328   -0.2726252674
H        1.6578405988   -3.0328798577    0.8310530185
H        0.9903896896   -3.6149527971   -0.7131432023
H        1.9736887962   -0.4365647483   -1.9433413139
H        3.6456546111    2.5696507905   -2.6478823226
H        3.1699821482    0.9453036695   -3.1861622282
H        2.1402506148    1.8442628826   -2.0344722126
26   
torsion grid (-30,)
C        3.3390726983    3.1034534495   -0.8447928137
C        2.6793152214    1.9242490764   -0.4051915725
C        4.5919823338    3.0410961753   -1.3870433741
C        3.3147585665    0.7155154932   -0.5253042899
C        5.2970708187    1.7862485341   -1.5268136173
C        0.4006027488   -0.6977479926   -1.1207735091
C        1.8355333796   -1.1821657228   -1.3737155327
C        0.3317019974   -0.7264414521    0.4056875491
C        2.6087927482   -0.5824366905   -0.1704120803
C        5.2565228213   -0.6524895242   -1.2413354239
N        4.5716135039    0.6375974245   -1.0863253904
O        6.4377687176    1.6667038249   -1.9898440684
O        1.6434941707   -0.3477994147    0.8614134497
H        2.8381066230    4.0640623368   -0.7459854588
H        1.7053890233    1.9575966389    0.0648090792
H        5.1241190423    3.9220299669   -1.7293556656
H       -0.3521927867   -1.3353757495   -1.5916523092
H        0.2707805662    0.3231805509   -1.4915749236
H        2.2356459833   -0.8536583312   -2.3352777858
H        1.8832352232   -2.2753223359   -1.3363604742
H       -0.3857505543   -0.0191775885    0.8311474555
H        0.0918746625   -1.7339067854    0.7742873800
H        3.3347233908   -1.3016282560    0.2194781480
H        5.5287547777   -1.0693988476   -0.2669375543
H        4.6281280002   -1.3652816228   -1.7794659693
H        6.1652426287   -0.4656198793   -1.8100603180
26   
torsion grid (-15,)
C        3.4107557789    3.1413710234   -0.7048249916
C        2.7406711123    1.9705799965   -0.2554624894
C        4.6031160424    3.0544189260   -1.3661706775
C        3.3008992408    0.7445852559   -0.4996638654
C        5.2427015380    1.7804085662   -1.6110331070
C        0.4767018396   -0.7695952980   -1.2018159830
C        1.9301319871   -1.2526915563   -1.2977596002
C        0.2828554006   -0.6839809024    0.3095888988
C        2.6027266046   -0.5424121975   -0.0897679022
C        5.1882543202   -0.6541760596   -1.3022494201
N        4.5170395164    0.6427412545   -1.1436919731
O        6.3368058281    1.6387111125   -2.1703527705
O        1.5506142619   -0.2550525305    0.8365433379
H        2.9649594547    4.1158417184   -0.5171947867
H        1.8040549716    2.0162699612    0.2832944695
H        5.1402433207    3.9280818439   -1.7192766971
H       -0.2304206278   -1.4493501753   -1.6843317127
H        0.3737427666    0.2202257854   -1.6565532429
H        2.3941204395   -0.9962805009   -2.2518104579
H        1.9856001995   -2.3384982736   -1.1688800727
H       -0.4705118210    0.0448207647    0.6213856520
H        0.0218663697   -1.6632371057    0.7351546829
H        3.3177703416   -1.2060940315    0.4078485342
H        5.4990492191   -1.0478591655   -0.3292768946
H        4.5392707802   -1.3798460348   -1.7939653349
H        6.0721359728   -0.4846812234   -1.9137881531
26   
torsion grid (0,)
C        3.4313234365    3.0347374391   -0.6303292760
C        2.8111054934    1.8549407104   -0.1354648257
C        4.5009394690    2.9594192339   -1.4776687127
C        3.2923197965    0.6281216439   -0.5142372735
C        5.0514717533    1.6849303338   -1.8788639019
C        0.6339325812   -0.8729288803   -1.3105796802
C        2.0267644290   -1.4990736557   -1.1618602883
C        0.2786804252   -0.5239179409    0.1373652492
C        2.6346883578   -0.6569128001   -0.0154357235
C        5.0762515134   -0.7250352060   -1.6413063034
N        4.4092146430    0.5435090284   -1.3195616590
O        6.0188982847    1.5274711305   -2.6340855297
O        1.5297508366   -0.3590670633    0.8382622748
H        3.0426530411    4.0058480228   -0.3313575930
H        1.9594509446    1.8933075875    0.5299427610
H        4.9925905755    3.8387136503   -1.8797668158
H       -0.0900949602   -1.5522233258   -1.7673695233
H        0.6906695436    0.0310398259   -1.9238778322
H        2.6011827619   -1.4647342194   -2.0873967231
H        1.9518877534   -2.5431943271   -0.8408336527
H       -0.2971597538    0.4031418522    0.2254111082
H       -0.2795260451   -1.3301437903    0.6282049311
H        3.3510687065   -1.2298066422    0.5826672371
H        6.1527076429   -0.5769803602   -1.5510343069
H        4.7549586858   -1.5127479653   -0.9646629616
H        4.8718395751   -1.0197556010   -2.6745922831
26   
torsion grid (15,)
C        3.5444175602    2.9689909913   -0.4574213367
C        2.9068852298    1.7933214056    0.0249043972
C        4.5289614079    2.8915232736   -1.4016105167
C        3.2754623167    0.5680997188   -0.4701208490
C        4.9873436088    1.6157686663   -1.9022475126
C        0.7449137638   -0.9830045136   -1.4158835956
C        2.0785828056   -1.6447747478   -1.0414527345
C        0.2724306836   -0.3931401542   -0.0789291411
C        2.6068930073   -0.7022183547    0.0661410870
C        5.0102256812   -0.7943472022   -1.6649833217
N        4.3449551991    0.4749234020   -1.3391042104
O        5.8935554655    1.4565461228   -2.7294064218
O        1.4221465137   -0.3720889714    0.7925795281
H        3.2355795109    3.9381982093   -0.0718158352
H        2.0986725422    1.8373220991    0.7426746245
H        5.0304800395    3.7673730533   -1.7990415043
H        0.0281403582   -1.6919129171   -1.8373491400
H        0.9113135272   -0.1916884544   -2.1525270075
H        2.7336942283   -1.7586406341   -1.9020866480
H        1.9133092266   -2.6339132508   -0.6027461256
H       -0.1187089743    0.6245884970   -0.1867704666
H       -0.4882591810   -1.0112782297    0.4087773566
H        3.2789021432   -1.2099116746    0.7653459997
H        6.0849994135   -0.6124313544   -1.6796772022
H        4.7757801315   -1.5507475881   -0.9190676243
H        4.7268486865   -1.1497071992   -2.6596068576
26   
torsion grid (30,)
C        4.2065864659    2.9128851098    0.3024059373
C        3.2042030806    1.9130939203    0.4157035084
C        5.3802533592    2.6536417286   -0.3464530450
C        3.4100503221    0.6754299966   -0.1424075883
C        5.6580411313    1.3498357972   -0.9018324972
C        0.5811778838   -1.6592940105   -1.1096785786
C        2.1100535723   -1.4062135435   -1.1261078006
C        0.0788218769   -0.7288826101    0.0080163151
C        2.3432161160   -0.3980747846    0.0371587708
C        5.0449888139   -1.0036077690   -1.0173449819
N        4.6361910839    0.3712744989   -0.7015272545
O        6.7039571634    1.0383929790   -1.4849789149
O        1.0837390949    0.2763894319    0.1379240233
H        4.0277781583    3.8958042671    0.7326689947
H        2.2461160084    2.1251684240    0.8700561360
H        6.1640024436    3.3947693512   -0.4602171757
H        0.3352380865   -2.7052663576   -0.9081712676
H        0.1359856895   -1.3909203803   -2.0705108899
H        2.4150211137   -0.9584801874   -2.0742580043
H        2.6720866607   -2.3306125383   -0.9926703852
H       -0.8606098676   -0.2205251833   -0.2175524615
H       -0.0325814303   -1.2732351523    0.9579078081
H        2.5425629341   -0.9492813094    0.9716264521
H        6.1333862505   -1.0260817505   -1.0060684960
H        4.6536695479   -1.6908315487   -0.2673058934
H        4.7134294933   -1.3094370066   -2.0121961010
26   
torsion grid (45,)
C        4.3255233145    2.9800332369    0.4741115754
C        3.3399093751    1.9615943081    0.5310062167
C        5.4704982459    2.7961638997   -0.2470899534
C        3.5272950896    0.7803298747   -0.1464031673
C        5.7294390541    1.5579237444   -0.9418483381
C        0.7619192915   -1.7963243540   -0.8407452907
C        2.2462881021   -1.4197602261   -1.0176892064
C        0.1217742386   -0.5024355369   -0.2876878204
C        2.4128457296   -0.2600810846   -0.0159430986
C        5.1160618907   -0.7698659139   -1.3130058836
N        4.7208726142    0.5493794135   -0.8013110632
O        6.7503546486    1.3248617709   -1.6008318934
O        1.1790969977    0.4607621119   -0.1876209708
H        4.1574414343    3.9152511910    1.0034708920
H        2.3999070823    2.1208419240    1.0431062863
H        6.2438265716    3.5527049357   -0.3243388457
H        0.6524840473   -2.6192330336   -0.1284606784
H        0.3126101409   -2.1152642745   -1.7841233743
H        2.4287797529   -1.0561679462   -2.0314658987
H        2.9016698656   -2.2691348361   -0.8253584843
H       -0.6363317120   -0.0725885239   -0.9468255885
H       -0.3270173238   -0.6675973484    0.7011137607
H        2.4574237184   -0.6750764798    1.0052390054
H        6.1918384191   -0.7380984270   -1.4735008231
H        4.8761130409   -1.5420647532   -0.5829876751
H        4.6373416633   -0.9953677390   -2.2678878776
26   
torsion grid (60,)
C        4.4785946438    2.4419141165    0.6499210568
C        3.4144217757    1.5062740536    0.6723784327
C        5.5759574748    2.2170431712   -0.1311439826
C        3.4727731413    0.3661820626   -0.0937960362
C        5.6883810198    1.0329760829   -0.9486889696
C        0.4960627933   -2.0120236634   -0.6144371054
C        2.0178134494   -1.8463985413   -0.7527263297
C       -0.0135073859   -0.5590769616   -0.7014029402
C        2.2258643595   -0.5184746865   -0.0139521699
C        4.7825603892   -1.1224946951   -1.6311371949
N        4.5919102493    0.1121712492   -0.8594902239
O        6.6512572781    0.7823597879   -1.6840766122
O        1.1259349766    0.2940334013   -0.4755543718
H        4.4133615667    3.3423881682    1.2564324423
H        2.5217013079    1.6913531746    1.2576856450
H        6.4111013560    2.9071053305   -0.1824344679
H        0.2475462523   -2.4526441528    0.3561404170
H        0.0730042985   -2.6536903600   -1.3912807500
H        2.2841029945   -1.7564052413   -1.8060749415
H        2.5719249296   -2.6789855652   -0.3128252408
H       -0.4131370889   -0.3134729167   -1.6905624939
H       -0.7841032786   -0.3456183790    0.0487520540
H        2.0839441910   -0.7224543558    1.0598699430
H        5.8341200221   -1.1645229916   -1.9069115641
H        4.5249806883   -1.9925483015   -1.0307737320
H        4.1897405697   -1.1096657408   -2.5490382957
26   
torsion grid (75,)
C        4.3723775008    2.1276545514    0.8596358747
C        3.2363294926    1.2780764093    0.8388294205
C        5.4351293535    1.8727240492    0.0419464964
C        3.1853163808    0.2042880209   -0.0175711547
C        5.4272634147    0.7611438934   -0.8815538550
C        0.1390796934   -2.0812598444   -0.5009355735
C        1.6753772246   -2.0302713076   -0.4604005462
C       -0.2181958246   -0.6856591615   -1.0416862975
C        1.8788892918   -0.5833281477    0.0046315283
C        4.1587785170   -1.0193661107   -1.9652668721
N        4.2255739951   -0.0159208944   -0.8970040250
O        6.3631694262    0.4795570735   -1.6398040539
O        0.8779863168    0.1879524738   -0.6939294498
H        4.3944221450    2.9772023029    1.5383174906
H        2.3999508240    1.4540478613    1.5052672887
H        6.3288424413    2.4872024569    0.0331936142
H       -0.2667332549   -2.2209637181    0.5061900810
H       -0.2430632270   -2.8862583254   -1.1338939183
H        2.0667871175   -2.2177493105   -1.4569416034
H        2.1178586981   -2.7513482204    0.2323165004
H       -0.3208024973   -0.6857370511   -2.1334458827
H       -1.1403144043   -0.2871463610   -0.6057248694
H        1.6056454904   -0.5846842331    1.0714783024
H        5.0178658253   -0.8516319000   -2.6115767760
H        4.2218277273   -2.0328603388   -1.5626533610
H        3.2381630493   -0.8935114396   -2.5365528092
26   
torsion grid (90,)
C        4.4940654306    2.0651737144    1.0433405372
C        3.3047062898    1.2869132825    1.0502746319
C        5.4823540327    1.8023897673    0.1394188801
C        3.1406909883    0.2660186010    0.1461035154
C        5.3327145869    0.7676390674   -0.8610104548
C        0.2542300303   -2.1318945203   -0.5141929285
C        1.7223721933   -1.9984033881   -0.0731635332
C        0.0396100573   -0.8497417637   -1.3274952795
C        1.8207432787   -0.4834484681    0.1661754557
C        3.8358591203   -0.7449896478   -2.0322819323
N        4.0868967515    0.0771554820   -0.8421814406
O        6.1784566017    0.4914286615   -1.7201603966
O        0.8814690437    0.1557824788   -0.7286555983
H        4.6151631902    2.8651905318    1.7700441595
H        2.5377624236    1.4551236045    1.7974717213
H        6.4101712582    2.3633196058    0.1061244999
H       -0.4062382374   -2.1423036954    0.3589726634
H        0.0625824232   -3.0368172325   -1.0969260693
H        2.3905479959   -2.3596434329   -0.8520934431
H        1.9464556912   -2.5515582323    0.8423827449
H        0.3321726158   -0.9886683026   -2.3776403001
H       -0.9924324248   -0.4880270575   -1.3022700104
H        1.4407438859   -0.3128048992    1.1826514546
H        4.4113785862   -0.3153298154   -2.8512959311
H        4.1809463483   -1.7734775089   -1.8927725417
H        2.7759040168   -0.7228138788   -2.2753537796
26   
torsion grid (105,)
C        4.5779173803    1.9567253169    1.1484455455
C        3.3392810195    1.2591671719    1.1171035223
C        5.5340597739    1.7031045653    0.2079802332
C        3.0989216605    0.3270671035    0.1376662399
C        5.3100001155    0.7500287219   -0.8581612747
C        0.3004532999   -2.1625056545   -0.4601153779
C        1.7308912743   -1.9289615477    0.0529929754
C        0.0876205593   -0.9702520996   -1.4029728782
C        1.7673754765   -0.3953175491    0.1447509596
C        3.7443198291   -0.6570165982   -2.0692206024
N        4.0281406765    0.1317198174   -0.8632481918
O        6.1285941328    0.4760285093   -1.7436972464
O        0.9014828751    0.1072200873   -0.8950967328
H        4.7609073626    2.6890821076    1.9313837770
H        2.5889671981    1.4272990858    1.8809014670
H        6.4951457833    2.2059427372    0.2001420497
H       -0.4113495230   -2.1231696370    0.3707944664
H        0.1776502296   -3.1232652621   -0.9669084034
H        2.4654185119   -2.3236691406   -0.6490943074
H        1.9188008584   -2.3853789029    1.0279369718
H        0.4072346252   -1.2066208644   -2.4270707910
H       -0.9508278139   -0.6276711448   -1.4377168758
H        1.3090302387   -0.1199402850    1.1035262003
H        4.2634571672   -0.1840800344   -2.9023978600
H        4.1328015093   -1.6756263824   -1.9774319735
H        2.6748226392   -0.6640376103   -2.2569139170
26   
torsion grid (120,)
C        4.6381912309    1.8266997344    1.2318156846
C        3.3594888049    1.2113654144    1.1489550902
C        5.5726963197    1.6043655430    0.2620424323
C        3.0557370482    0.3931973635    0.0877997123
C        5.2930848548    0.7500670820   -0.8719886382
C        0.3272726306   -2.1746893671   -0.4033316733
C        1.7247934542   -1.8435071170    0.1408062928
C        0.1263364923   -1.0904679695   -1.4709593013
C        1.7124373198   -0.3064170847    0.0863584135
C        3.6927142188   -0.5702352399   -2.1336861292
N        3.9795388242    0.2020365835   -0.9170730337
O        6.0977694227    0.4885802805   -1.7736269538
O        0.9069836352    0.0495678388   -1.0541205702
H        4.8682531083    2.4731173312    2.0756598318
H        2.6177860355    1.3687423041    1.9234081503
H        6.5622966251    2.0476337547    0.2897983908
H       -0.4212317593   -2.0747844351    0.3894096295
H        0.2534202887   -3.1845888680   -0.8150518109
H        2.5028951383   -2.2622496002   -0.5007627654
H        1.8938269855   -2.2050157934    1.1579509070
H        0.4860676412   -1.4243898811   -2.4536476739
H       -0.9156242894   -0.7738975034   -1.5754861677
H        1.1955212825    0.0585869765    0.9826174152
H        4.2031738973   -0.0851242240   -2.9651895833
H        4.0923896163   -1.5856726438   -2.0514832385
H        2.6230525553   -0.5849465198   -2.3116227760
26   
torsion grid (135,)
C        4.7095062740    1.8110655747    1.1094593564
C        3.4221357401    1.2127612621    1.0548564440
C        5.5596454815    1.7130224892    0.0465104805
C        3.0344924724    0.5203069732   -0.0663971135
C        5.1838668272    1.0103386544   -1.1616237461
C        0.4772344777   -2.2085687792   -0.4434292192
C        1.7871541310   -1.7215073907    0.1925153043
C        0.3185156580   -1.2466205601   -1.6255597041
C        1.6990275089   -0.1966151048   -0.0280947907
C        3.4910097257   -0.2699389628   -2.3878150284
N        3.8837290253    0.4153713280   -1.1464272636
O        5.9096604817    0.9081730562   -2.1569963430
O        0.9101053415   -0.0014193909   -1.2127201662
H        5.0118541288    2.3525919349    2.0029236357
H        2.7352882053    1.2938645808    1.8897567343
H        6.5476531592    2.1605076401    0.0435391028
H       -0.3536154797   -2.0889390471    0.2595330263
H        0.5127723893   -3.2556566107   -0.7557453916
H        2.6558163983   -2.1461540417   -0.3177330472
H        1.8751579204   -1.9630477992    1.2541757978
H        0.8435462204   -1.6189397872   -2.5162696107
H       -0.7238380960   -1.0540494647   -1.8948448473
H        1.1476016825    0.2459302880    0.8099636080
H        4.3626492234   -0.2695991040   -3.0382820109
H        3.1941114701   -1.2996083284   -2.1845220724
H        2.6625097862    0.2548074632   -2.8629243463
26   
torsion grid (150,)
C        4.7482927886    1.6608498073    1.1471997142
C        3.4388860827    1.1222653602    1.0513494014
C        5.5806238495    1.6390285289    0.0652103437
C        3.0077829882    0.5666685643   -0.1303041678
C        5.1691907694    1.0644760655   -1.1963965945
C        0.4915256597   -2.2037704701   -0.3524980744
C        1.7626027690   -1.6213585027    0.2768801908
C        0.3779562608   -1.3834610984   -1.6410493614
C        1.6562813199   -0.1279524725   -0.1059759652
C        3.4674169736   -0.1471575676   -2.4799274979
N        3.8505745754    0.5050582344   -1.2164581100
O        5.8813722344    1.0254471030   -2.2059599514
O        0.9405599504   -0.0927352687   -1.3462633589
H        5.0821882626    2.0970271397    2.0859845025
H        2.7586386154    1.1604385426    1.8952007560
H        6.5851565409    2.0470273177    0.0916035174
H       -0.3729222509   -2.0226933153    0.2946948887
H        0.5577222785   -3.2781038317   -0.5435375617
H        2.6589389407   -2.0657624717   -0.1673242413
H        1.8240653262   -1.7551693162    1.3590708868
H        0.9478971723   -1.8449965022   -2.4598100695
H       -0.6519455724   -1.2358585509   -1.9780236730
H        1.0556995768    0.3962567434    0.6473827154
H        4.3499611784   -0.1402571974   -3.1155074290
H        3.1582520145   -1.1776351456   -2.2971052172
H        2.6515655177    0.3912099327   -2.9599965027
26   
torsion grid (165,)
C        4.8562463949    1.3644922756    1.1768374110
C        3.5210398710    0.9049331370    1.0581618754
C        5.6733789412    1.3914850177    0.0827151395
C        3.0400420332    0.4819015984   -0.1605379140
C        5.2164577668    0.9458376093   -1.2128437450
C        0.4246500324   -2.1955828868   -0.1645913638
C        1.6516188189   -1.5428839989    0.4798341295
C        0.4682689245   -1.5905580289   -1.5679390264
C        1.6367481720   -0.1219841738   -0.1378272579
C        3.4387590695   -0.0550508450   -2.5741768273
N        3.8616866248    0.4698146988   -1.2624341956
O        5.9159507848    0.9461163852   -2.2321144715
O        0.9868847214   -0.2601278479   -1.4041377560
H        5.2247622718    1.6991510718    2.1439809172
H        2.8561425487    0.9041153412    1.9154175797
H        6.6993682550    1.7400877128    0.1267088531
H       -0.4911317984   -1.8930828671    0.3539727219
H        0.4721655103   -3.2877260779   -0.1740640380
H        2.5681094772   -2.0650177712    0.1856908286
H        1.6191117592   -1.5124516843    1.5707906883
H        1.1365469165   -2.1644484440   -2.2269487547
H       -0.5098026732   -1.5116763391   -2.0498158911
H        1.0240959548    0.5443832927    0.4817261074
H        4.2996828345    0.0299296227   -3.2330212672
H        3.1481051473   -1.1035141510   -2.4876295876
H        2.6007699137    0.5168397459   -2.9674564620
26   
torsion grid (180,)
C        4.8646964765    1.0685587259    1.1793589404
C        3.5223171619    0.6433806593    1.0274945690
C        5.6886623939    1.1467222270    0.0926524419
C        3.0314938209    0.3233746531   -0.2193634223
C        5.2232319231    0.8095085632   -1.2310840813
C        0.3489887722   -2.2561946593   -0.1148697090
C        1.3962359866   -1.4337964135    0.6462231665
C        0.6924250996   -1.9038637626   -1.5597339856
C        1.5760367607   -0.1702530149   -0.2457894263
C        3.3713713680    0.1679251061   -2.7024814091
N        3.8405433970    0.4224684147   -1.3258143640
O        5.9304628242    0.8444812554   -2.2444395221
O        1.0353045526   -0.5109947984   -1.5242632900
H        5.2368204001    1.3264845087    2.1684306454
H        2.8683538368    0.5638351696    1.8887920390
H        6.7244968964    1.4599300100    0.1635983204
H       -0.6651172430   -1.9194172757    0.1228198346
H        0.4186997839   -3.3273625728    0.0928855021
H        2.3413030874   -1.9803592178    0.7102686112
H        1.0906248705   -1.1771724066    1.6625752902
H        1.5476308984   -2.4960026951   -1.9206791623
H       -0.1356538478   -2.0179158241   -2.2630461442
H        0.9646332113    0.6539024803    0.1404122304
H        4.1783076696    0.4744292616   -3.3637598735
H        3.1687546634   -0.8937831403   -2.8540317032
H        2.4663460801    0.7348227618   -2.9063221482
