16   
torsion grid (-165,)
C        0.6010455828    0.6186874356   -1.3419305194
C       -0.8389371980   -1.2986219791   -0.7387426050
C        0.9039100734    0.0732916946    0.0402290200
C       -0.5481109757   -0.3657539159    0.4220265834
C        0.4359707046    0.0162116931    1.4947666771
N       -0.2545063931   -0.5115944673   -1.8960109422
O        0.1403940690    1.0748680052    2.3498882045
H        0.0752837716    1.5818131480   -1.3189293663
H        1.4967140387    0.7239254473   -1.9616235452
H       -0.3357903094   -2.2658202129   -0.6461637769
H       -1.9069098707   -1.4780144242   -0.9055004785
H        1.5124543037   -0.8246867626   -0.0890234504
H       -1.1868816813    0.5169421734    0.2855431710
H        0.9807681313   -0.7383723344    2.0550819822
H       -0.9952724818   -0.1422915027   -2.4868684879
H       -0.5374437633    1.6351340121    1.9393727759
16   
torsion grid (-150,)
C        0.6131608199    0.6066492626   -1.3536162657
C       -0.8456450272   -1.2893592454   -0.7276635498
C        0.9157502283    0.0692073303    0.0311023429
C       -0.5403733677   -0.3480187586    0.4226572568
C        0.4528490075    0.0301318425    1.4868150963
N       -0.2566691774   -0.5198934688   -1.8942768972
O        0.1700784340    1.1060833381    2.3283126283
H        0.0979390545    1.5752270772   -1.3349803271
H        1.5071040787    0.6967868057   -1.9780980224
H       -0.3533895422   -2.2613642391   -0.6273096956
H       -1.9162704017   -1.4581058197   -0.8888671211
H        1.5124941137   -0.8373924821   -0.0933034622
H       -1.1650962334    0.5431189560    0.2765840474
H        0.9905030764   -0.7299581945    2.0479044606
H       -0.9950279384   -0.1487705051   -2.4870413277
H       -0.6513662504    1.5314248410    2.0375830073
16   
torsion grid (-135,)
C        0.6220916908    0.5911929699   -1.3610004468
C       -0.8552366234   -1.2851222663   -0.7194076921
C        0.9207198267    0.0586423178    0.0260363866
C       -0.5409879965   -0.3368037208    0.4224814906
C        0.4609457205    0.0383343856    1.4793089875
N       -0.2583385305   -0.5316532469   -1.8927397856
O        0.1920516181    1.1424686741    2.2937926102
H        0.1161856192    1.5644620040   -1.3465804631
H        1.5161386947    0.6683304388   -1.9870206910
H       -0.3738510469   -2.2616379825   -0.6109451285
H       -1.9277212780   -1.4433036166   -0.8792615704
H        1.5069899246   -0.8556260767   -0.0925715836
H       -1.1506926118    0.5620444974    0.2668392014
H        0.9965842275   -0.7229416222    2.0427004843
H       -0.9924111254   -0.1588476532   -2.4898285041
H       -0.7257519236    1.4215775000    2.1585743494
16   
torsion grid (-120,)
C        0.6254787795    0.5684325818   -1.3557945972
C       -0.8730145647   -1.2898585717   -0.7115738426
C        0.9145308876    0.0344694975    0.0321395514
C       -0.5548757973   -0.3393628747    0.4272434876
C        0.4547437900    0.0323389507    1.4796837984
N       -0.2637683331   -0.5480014731   -1.8865572336
O        0.1988912653    1.1708296833    2.2549058694
H        0.1293019220    1.5463715519   -1.3428413816
H        1.5217548895    0.6350427950   -1.9798779470
H       -0.4030375831   -2.2713034678   -0.5978338476
H       -1.9466157408   -1.4367502807   -0.8748578159
H        1.4893907711   -0.8874305161   -0.0827348725
H       -1.1488782008    0.5674670874    0.2662748075
H        0.9882165546   -0.7269682321    2.0501168712
H       -0.9911671515   -0.1708732159   -2.4891309480
H       -0.7587444981    1.3092199911    2.3013366875
16   
torsion grid (-105,)
C        0.5115278386    0.5747545297   -1.4002162724
C       -0.8335707590   -1.3595843316   -0.6515665704
C        0.8889261825    0.0941444624   -0.0145998670
C       -0.5386593574   -0.3600883594    0.4509505525
C        0.4927985055    0.1135347007    1.4441832202
N       -0.3207769751   -0.6112492413   -1.8684939600
O        0.1932272911    1.2832024590    2.1570828528
H       -0.0474323019    1.5178519324   -1.3867138449
H        1.3759676316    0.6842687748   -2.0621203884
H       -0.2955024925   -2.3050014196   -0.5342512319
H       -1.9004671911   -1.5807739339   -0.7683821328
H        1.5160172486   -0.7926774153   -0.1313130335
H       -1.1938309264    0.5028085909    0.2945912811
H        1.1008389326   -0.5848623277    2.0200018036
H       -1.0942685043   -0.2982758627   -2.4500770771
H       -0.7324661029    1.2390053349    2.4419162861
16   
torsion grid (-90,)
C        0.5164632469    0.5780842080   -1.4094235113
C       -0.8273852066   -1.3581751327   -0.6650060364
C        0.8827959344    0.1004395492   -0.0203771486
C       -0.5481873095   -0.3544839812    0.4380628384
C        0.4833151789    0.1396761026    1.4294116300
N       -0.3073048747   -0.6122287431   -1.8811820579
O        0.1748406955    1.3347450496    2.0938021751
H       -0.0456861123    1.5190377286   -1.4005709693
H        1.3856471612    0.6893253065   -2.0649302241
H       -0.2867377251   -2.3014084122   -0.5415700596
H       -1.8923026323   -1.5839547705   -0.7904422818
H        1.5119463200   -0.7858273856   -0.1286407204
H       -1.2041706152    0.5057513930    0.2769779881
H        1.0844138859   -0.5474705390    2.0272558071
H       -1.0776092278   -0.3024649935   -2.4687087664
H       -0.6616893336    1.2062037458    2.5691226029
16   
torsion grid (-75,)
C        0.5207604304    0.5808330243   -1.4148457362
C       -0.8206294128   -1.3602899523   -0.6795143451
C        0.8735525950    0.1062003840   -0.0215718138
C       -0.5594341774   -0.3537904839    0.4256906594
C        0.4673214486    0.1601893132    1.4204032929
N       -0.2925271725   -0.6140295384   -1.8928586653
O        0.1460446445    1.3696806570    2.0486637294
H       -0.0456898748    1.5190329819   -1.4121027091
H        1.3960309198    0.6951963001   -2.0617849641
H       -0.2759877758   -2.3005465783   -0.5503490514
H       -1.8828731125   -1.5922906080   -0.8156089604
H        1.5068365373   -0.7781072986   -0.1204255088
H       -1.2192569600    0.5020542171    0.2609365524
H        1.0560908716   -0.5189262599    2.0400596149
H       -1.0596624367   -0.3070521397   -2.4859726120
H       -0.5575216251    1.1917418353    2.6944635911
16   
torsion grid (-60,)
C        0.5173376064    0.5753093085   -1.4190781432
C       -0.8247620381   -1.3680364135   -0.6917057043
C        0.8565390026    0.1059995400   -0.0205839987
C       -0.5788112551   -0.3584134977    0.4140171688
C        0.4394347039    0.1693260287    1.4157584240
N       -0.2863339417   -0.6237571967   -1.9021792381
O        0.1046775125    1.3843009820    2.0232569472
H       -0.0525304216    1.5113556260   -1.4246454843
H        1.3989136550    0.6912815106   -2.0572529740
H       -0.2783735871   -2.3063472760   -0.5551301516
H       -1.8847288682   -1.6039926688   -0.8384644470
H        1.4930643458   -0.7770541143   -0.1092024592
H       -1.2420305352    0.4935472807    0.2449837275
H        1.0139468598   -0.5064870658    2.0521305122
H       -1.0488364024   -0.3202926668   -2.5030227335
H       -0.4302319206    1.1874897271    2.8099091190
16   
torsion grid (-45,)
C        0.5209576653    0.5799063133   -1.4209464880
C       -0.8162896040   -1.3715965220   -0.7068690974
C        0.8454875123    0.1144189929   -0.0179237931
C       -0.5892101482   -0.3608395847    0.4022413249
C        0.4152905862    0.1825587452    1.4137096086
N       -0.2704292084   -0.6240586002   -1.9122852687
O        0.0551480972    1.3953392429    2.0104364492
H       -0.0546936557    1.5123166965   -1.4341852688
H        1.4091535622    0.7008134474   -2.0490208182
H       -0.2644604176   -2.3059853453   -0.5647985579
H       -1.8728237621   -1.6153487271   -0.8651532721
H        1.4894298932   -0.7643024569   -0.0965323216
H       -1.2592663080    0.4850063552    0.2293972467
H        0.9792931345   -0.4881959814    2.0640459425
H       -1.0301398359   -0.3235503981   -2.5181236360
H       -0.2860296595    1.2049951156    2.8989427508
16   
torsion grid (-30,)
C        0.5328775461    0.5910540609   -1.4174361909
C       -0.7971972289   -1.3698627205   -0.7154978821
C        0.8429040215    0.1339543475   -0.0082940378
C       -0.5912619376   -0.3547318425    0.3935080911
C        0.3887753312    0.1970271910    1.4199799352
N       -0.2442665866   -0.6197490603   -1.9159530436
O       -0.0050728991    1.3992757022    2.0194941374
H       -0.0494990723    1.5190887624   -1.4423025562
H        1.4282736397    0.7163004746   -2.0343564445
H       -0.2378379037   -2.2984269696   -0.5646103825
H       -1.8493341572   -1.6241900030   -0.8859171910
H        1.4962145748   -0.7390517503   -0.0752138250
H       -1.2691039769    0.4836877408    0.2137719137
H        0.9503742509   -0.4693003650    2.0759139480
H       -1.0011596206   -0.3242904419   -2.5277875919
H       -0.1349479148    1.2402265119    2.9668035050
16   
torsion grid (-15,)
C        0.5396404520    0.5975058107   -1.4142513167
C       -0.7857116757   -1.3707241416   -0.7240375429
C        0.8390616182    0.1475375275   -0.0003155484
C       -0.5956791915   -0.3521139817    0.3840247804
C        0.3566313400    0.1957312889    1.4268559263
N       -0.2258167596   -0.6186448633   -1.9192906648
O       -0.0735858536    1.3800305748    2.0410201191
H       -0.0482788637    1.5218646356   -1.4488129017
H        1.4406260434    0.7265836420   -2.0221663342
H       -0.2215748486   -2.2950286941   -0.5649757688
H       -1.8344030412   -1.6322703432   -0.9045103191
H        1.4999623930   -0.7206999587   -0.0584685572
H       -1.2786603564    0.4810995298    0.1980170275
H        0.9259198554   -0.4669215600    2.0789786937
H       -0.9792016663   -0.3279140622   -2.5377243917
H        0.0156815793    1.2801498897    2.9998491719
16   
torsion grid (0,)
C        0.5461421666    0.6055150347   -1.4130705530
C       -0.7742806595   -1.3698073632   -0.7334564898
C        0.8384077721    0.1621236146    0.0048211642
C       -0.5967615176   -0.3478200261    0.3726631446
C        0.3259281554    0.1880492762    1.4326951852
N       -0.2088921537   -0.6155468535   -1.9237127183
O       -0.1414672669    1.3479999598    2.0681352229
H       -0.0471104669    1.5262936160   -1.4557257658
H        1.4513092581    0.7384718726   -2.0138483299
H       -0.2062571634   -2.2904134486   -0.5672276771
H       -1.8201026462   -1.6371983377   -0.9218265797
H        1.5064927467   -0.7013842338   -0.0467769318
H       -1.2836672777    0.4812694539    0.1812587737
H        0.9101638156   -0.4706989698    2.0750458645
H       -0.9589719835   -0.3296428471   -2.5484338589
H        0.1571886561    1.3372947101    2.9885382894
16   
torsion grid (15,)
C        0.5509676595    0.6174098166   -1.4108060397
C       -0.7635468713   -1.3662456937   -0.7434472656
C        0.8391455615    0.1768316031    0.0093377870
C       -0.5963992905   -0.3430497581    0.3620111566
C        0.3004586710    0.1761466096    1.4384218563
N       -0.1937834617   -0.6077224975   -1.9279910155
O       -0.1995179910    1.3084665856    2.0972056947
H       -0.0479197164    1.5345082879   -1.4576812556
H        1.4589386124    0.7561564617   -2.0059787715
H       -0.1924409232   -2.2840863942   -0.5729823946
H       -1.8070263863   -1.6379844199   -0.9384355526
H        1.5136947956   -0.6820864427   -0.0393795794
H       -1.2859324049    0.4833207511    0.1679540627
H        0.8989855026   -0.4815855844    2.0687952445
H       -0.9404258145   -0.3263698490   -2.5589132028
H        0.2789604552    1.4124687039    2.9324737737
16   
torsion grid (30,)
C        0.5440107572    0.6110371418   -1.3926797940
C       -0.7714839950   -1.3777109794   -0.7436488821
C        0.8280404232    0.1655041257    0.0272931190
C       -0.6112668047   -0.3582089337    0.3650704359
C        0.2690955919    0.1406144026    1.4553877380
N       -0.1954704521   -0.6129433598   -1.9204904418
O       -0.2511740584    1.2500139513    2.1343124263
H       -0.0567102177    1.5271104698   -1.4385170817
H        1.4545493097    0.7546922178   -1.9827512575
H       -0.2005750066   -2.2956008352   -0.5732054375
H       -1.8136353281   -1.6494161346   -0.9455141498
H        1.5038426537   -0.6924064937   -0.0228372723
H       -1.2990210317    0.4694013267    0.1710032188
H        0.8693020531   -0.5248000528    2.0768792201
H       -0.9377054997   -0.3306859242   -2.5562349099
H        0.3628519504    1.4810824561    2.8478623595
16   
torsion grid (45,)
C        0.5515246027    0.6466411053   -1.3881501006
C       -0.7489046913   -1.3576010971   -0.7584956578
C        0.8399232351    0.1923112695    0.0285729923
C       -0.6007559695   -0.3442285163    0.3563138919
C        0.2720796222    0.1419705938    1.4540266784
N       -0.1716189430   -0.5814064777   -1.9269747254
O       -0.2619212771    1.2316207622    2.1523596711
H       -0.0594566104    1.5563739325   -1.4265135910
H        1.4610952794    0.8061374768   -1.9757658432
H       -0.1741706037   -2.2737286181   -0.5916444851
H       -1.7889166562   -1.6331660497   -0.9660940685
H        1.5206690973   -0.6609915393   -0.0295182721
H       -1.2917278584    0.4810048970    0.1663048502
H        0.8695605086   -0.5339862252    2.0677531887
H       -0.9090636085   -0.3062016249   -2.5713423531
H        0.4412936876    1.5956090942    2.7133076604
16   
torsion grid (60,)
C        0.5490149639    0.6487333080   -1.3650696185
C       -0.7505847972   -1.3647365967   -0.7632116693
C        0.8334143924    0.1754478523    0.0464725437
C       -0.6090415881   -0.3636411071    0.3632837272
C        0.2645424400    0.1091587492    1.4680260086
N       -0.1711408896   -0.5734546852   -1.9211726941
O       -0.2699399947    1.1902923237    2.1795482141
H       -0.0625451479    1.5584399092   -1.3942723528
H        1.4606740649    0.8158932926   -1.9472292847
H       -0.1746522979   -2.2815900854   -0.6054688111
H       -1.7892839369   -1.6395561556   -0.9779169669
H        1.5156372305   -0.6757333739   -0.0210567021
H       -1.2988623896    0.4634393252    0.1801266732
H        0.8502915841   -0.5815204572    2.0773487168
H       -0.9075049329   -0.2907840680   -2.5636048668
H        0.4746752867    1.6807128920    2.5641032565
16   
torsion grid (75,)
C        0.5482220818    0.6625273703   -1.3438785107
C       -0.7472979347   -1.3605100636   -0.7682951890
C        0.8339838400    0.1709741935    0.0615908244
C       -0.6116581419   -0.3722262612    0.3697682701
C        0.2668587122    0.0898127182    1.4783637500
N       -0.1653108278   -0.5553839079   -1.9157756263
O       -0.2592100694    1.1671693381    2.2041757087
H       -0.0665780762    1.5704244289   -1.3616621565
H        1.4598875806    0.8409100818   -1.9227824353
H       -0.1708813440   -2.2786058064   -0.6199632342
H       -1.7851681659   -1.6337726085   -0.9886608200
H        1.5166526264   -0.6783860387   -0.0180961461
H       -1.3014023450    0.4561200953    0.1947304190
H        0.8385740184   -0.6163674539    2.0833261438
H       -0.8981543557   -0.2693928466   -2.5607751287
H        0.4775205085    1.7695102779    2.3967159108
16   
torsion grid (90,)
C        0.5500044988    0.6743266674   -1.3217463406
C       -0.7448537392   -1.3552671981   -0.7710428358
C        0.8371558870    0.1633775424    0.0769103724
C       -0.6110196260   -0.3812919135    0.3795964085
C        0.2766498664    0.0730090928    1.4901114523
N       -0.1609656161   -0.5369086275   -1.9086292998
O       -0.2314304725    1.1512787550    2.2302753849
H       -0.0657811248    1.5818532967   -1.3274070022
H        1.4613891315    0.8618457187   -1.8983023165
H       -0.1692159440   -2.2756132193   -0.6339700311
H       -1.7827042904   -1.6251219052   -0.9954150104
H        1.5186299764   -0.6851891039   -0.0157021113
H       -1.3007540183    0.4489237456    0.2145028609
H        0.8352984485   -0.6454585477    2.0921143802
H       -0.8914504160   -0.2448833479   -2.5535781811
H        0.4459112085    1.8458499168    2.2237829891
16   
torsion grid (105,)
C        0.5548920959    0.6822529483   -1.3021580841
C       -0.7451039501   -1.3487650918   -0.7726126082
C        0.8440613321    0.1521610863    0.0891933322
C       -0.6060280244   -0.3905522660    0.3913432853
C        0.2938603445    0.0577296882    1.5014485184
N       -0.1599781397   -0.5194245067   -1.9017574151
O       -0.1877969804    1.1393140741    2.2567922010
H       -0.0586741849    1.5915687362   -1.2955991602
H        1.4653600561    0.8752844333   -1.8783949556
H       -0.1731512391   -2.2732273656   -0.6483976826
H       -1.7845491397   -1.6115124622   -0.9979098957
H        1.5225501635   -0.6968718974   -0.0163227833
H       -1.2943330190    0.4430222132    0.2364005684
H        0.8451537338   -0.6659325304    2.1024551379
H       -0.8894315838   -0.2184460460   -2.5437164981
H        0.3751302904    1.9024373602    2.0566374986
16   
torsion grid (120,)
C        0.5586850265    0.6821992897   -1.2892528966
C       -0.7551621324   -1.3431759115   -0.7736120970
C        0.8474149874    0.1351805940    0.0960219249
C       -0.6033100803   -0.4000476578    0.4017443640
C        0.3117413483    0.0396957152    1.5107333242
N       -0.1677687977   -0.5072212568   -1.8971482551
O       -0.1345135661    1.1210116177    2.2870429337
H       -0.0475300938    1.5967537151   -1.2730023989
H        1.4688624684    0.8740242506   -1.8663346048
H       -0.1902011859   -2.2735274885   -0.6620321028
H       -1.7975240358   -1.5953502842   -0.9974667363
H        1.5197599655   -0.7170842919   -0.0208044539
H       -1.2888984273    0.4384244358    0.2574478617
H        0.8607892905   -0.6872769356    2.1077473387
H       -0.8969515783   -0.1944796842   -2.5336935853
H        0.2616990915    1.9261171037    1.9228595259
16   
torsion grid (135,)
C        0.5545585661    0.6769353735   -1.2924061260
C       -0.7830928041   -1.3349205777   -0.7792746001
C        0.8462772775    0.1141942249    0.0860250265
C       -0.6012261540   -0.4070906572    0.4051195832
C        0.3327659346    0.0183475688    1.5098111482
N       -0.1993698690   -0.4945631157   -1.9016466530
O       -0.0714919629    1.0926508202    2.3140423223
H       -0.0358240483    1.6018979261   -1.2648516993
H        1.4621014252    0.8578493830   -1.8769542389
H       -0.2286488525   -2.2735534764   -0.6854740076
H       -1.8314542435   -1.5712382823   -0.9919350141
H        1.5087041836   -0.7438986696   -0.0441971082
H       -1.2815289308    0.4395227854    0.2762065271
H        0.8861987609   -0.7118763150    2.0965249029
H       -0.9339387634   -0.1629689435   -2.5221181566
H        0.1138893659    1.9133197308    1.8346560726
16   
torsion grid (150,)
C        0.5750805081    0.6718641678   -1.2930160716
C       -0.7841096076   -1.3240153467   -0.7712131885
C        0.8637692302    0.1085781518    0.0851639282
C       -0.5834360840   -0.4001909801    0.4147503121
C        0.3606658929    0.0233431921    1.5150804885
N       -0.1971463140   -0.4903927759   -1.8962883475
O       -0.0155984720    1.0923473900    2.3336765379
H       -0.0037686890    1.6044375746   -1.2657117552
H        1.4821934795    0.8410614106   -1.8816136866
H       -0.2406507398   -2.2693377067   -0.6801802670
H       -1.8363854396   -1.5479255019   -0.9781789890
H        1.5166791117   -0.7569693943   -0.0443078756
H       -1.2583849898    0.4521127050    0.2848243367
H        0.9189919890   -0.7022941434    2.1010334769
H       -0.9315668536   -0.1507485801   -2.5124241329
H       -0.0650045519    1.8934207044    1.7906990468
16   
torsion grid (165,)
C        0.5704212139    0.6478109415   -1.3111747823
C       -0.8216988059   -1.3201984973   -0.7662668421
C        0.8680774207    0.0800785352    0.0636724012
C       -0.5795834622   -0.4029618949    0.4171395366
C        0.3886889536   -0.0048001718    1.5054019537
N       -0.2411748581   -0.4950874509   -1.9008654657
O        0.0561994294    1.0517261544    2.3528643077
H        0.0157596699    1.5946681907   -1.2768229685
H        1.4719619228    0.7932529219   -1.9142907286
H       -0.2927017216   -2.2746532071   -0.6863888122
H       -1.8811645369   -1.5259759774   -0.9545819929
H        1.5020622370   -0.7980765574   -0.0765868970
H       -1.2422174882    0.4620493883    0.2974961941
H        0.9454515322   -0.7448496381    2.0733094595
H       -0.9827297754   -0.1354415101   -2.4967447709
H       -0.2233771310    1.8082264490    1.8139305243
16   
torsion grid (180,)
C        0.5938038668    0.6448537246   -1.3244967709
C       -0.8180749792   -1.3030175738   -0.7546984303
C        0.8898347216    0.0901027232    0.0553515129
C       -0.5580021815   -0.3772242764    0.4192661517
C        0.4129061666    0.0206572738    1.5030027701
N       -0.2345599684   -0.4948310381   -1.8985537286
O        0.0920840315    1.0759067642    2.3530259714
H        0.0502045131    1.5982222506   -1.2984566959
H        1.4943398322    0.7729100958   -1.9328498413
H       -0.2994554463   -2.2624875977   -0.6670055854
H       -1.8808221539   -1.4988053841   -0.9353802898
H        1.5156781518   -0.7954902726   -0.0756246623
H       -1.2127273683    0.4938466838    0.2890564209
H        0.9672304977   -0.7205225097    2.0714107187
H       -0.9752488712   -0.1330181484   -2.4941094683
H       -0.4039861068    1.7439023185    1.8532127827
