18   
torsion grid (-165,)
C        4.0706070936   -1.5589981721   -2.2437367754
C        3.5700403162   -0.8703400879   -0.9604104252
C        3.0463599132    0.5170131138   -1.2272907265
C        1.7792580011    0.9594392926   -1.1479549637
C        1.4345064648    2.3927056716   -1.4819510866
C        0.5973862615    0.1123256969   -0.7351052326
H        4.4898840686   -2.5474062012   -2.0243008977
H        4.8508705568   -0.9640212963   -2.7316672202
H        3.2525727218   -1.6846010453   -2.9608480858
H        2.8082364547   -1.4970715761   -0.4881884517
H        4.4029868497   -0.8060223054   -0.2471466203
H        3.8044923966    1.2313766999   -1.5552160836
H        0.6735261226    2.4405555351   -2.2723915785
H        1.0114355379    2.9069200329   -0.6090004872
H        2.3099158638    2.9554048762   -1.8183950737
H        0.8851466198   -0.8246390717   -0.2545926362
H       -0.0397347123    0.6624112661   -0.0317139634
H       -0.0302605172   -0.1285553918   -1.6032428300
18   
torsion grid (-150,)
C        4.0278398245   -1.5742774605   -2.2823072466
C        3.4985216600   -0.9372215192   -0.9837261295
C        2.9669411896    0.4541364017   -1.2100222186
C        1.6925196237    0.8725847733   -1.1239881720
C        1.3211803666    2.3068125917   -1.4207174745
C        0.5305646316   -0.0203212393   -0.7396029763
H        4.4456452395   -2.5694335407   -2.0926452134
H        4.8162035536   -0.9589371473   -2.7302697725
H        3.2254640933   -1.6741064324   -3.0208622249
H        2.7304229833   -1.5854213957   -0.5520284185
H        4.3176654320   -0.8952184624   -0.2528678242
H        3.7179337291    1.1869188069   -1.5123022898
H        0.5593815797    2.3602925675   -2.2101464330
H        0.8878887221    2.7896642763   -0.5349820720
H        2.1856825048    2.8946019164   -1.7423389754
H        0.8205799610   -0.8264009780   -0.0615162483
H       -0.2510026639    0.5616573168   -0.2386256514
H        0.0689194720   -0.4735577064   -1.6264505550
18   
torsion grid (-135,)
C        3.9810468358   -1.6100263480   -2.2983019736
C        3.4048550383   -1.0032953316   -1.0054395325
C        2.8995703814    0.4006893796   -1.2124242872
C        1.6303017686    0.8281801980   -1.1058739896
C        1.2621133729    2.2668038074   -1.3812282883
C        0.4754891367   -0.0780610622   -0.7171173681
H        4.3740621534   -2.6175411094   -2.1215688791
H        4.7984776051   -0.9952456148   -2.6916349014
H        3.2113121816   -1.6737107912   -3.0747171406
H        2.6083788548   -1.6503392340   -0.6261063552
H        4.1921036351   -0.9958299792   -0.2388071010
H        3.6587069658    1.1269675127   -1.5095556000
H        0.5052159486    2.3328418364   -2.1743516795
H        0.8235942616    2.7363743587   -0.4908074496
H        2.1291842450    2.8587808465   -1.6881085756
H        0.7184864933   -0.7184466096    0.1359161943
H       -0.4049722216    0.5110320528   -0.4418459891
H        0.1798553633   -0.7310105176   -1.5476005507
18   
torsion grid (-120,)
C        3.9854763160   -1.5569824667   -2.3474469284
C        3.4033016462   -0.9845329798   -1.0419386454
C        2.8743842279    0.4149754138   -1.2178852340
C        1.5970546166    0.8109565555   -1.0913414460
C        1.1922830025    2.2472508522   -1.3220188539
C        0.4721199328   -0.1396154800   -0.7158082479
H        4.3956246113   -2.5611211796   -2.1916215956
H        4.7913460286   -0.9210739151   -2.7309444564
H        3.2146985672   -1.6181592526   -3.1230886620
H        2.6181578179   -1.6499559550   -0.6703407222
H        4.1919657987   -0.9793761746   -0.2767335524
H        3.6179026417    1.1629525597   -1.4998764170
H        0.4490419250    2.3200115952   -2.1272047401
H        0.7234000158    2.6720291396   -0.4244298502
H        2.0475968639    2.8744785161   -1.5894128209
H        0.6393441714   -0.6028524633    0.2628893082
H       -0.4865377185    0.3854449456   -0.6697682864
H        0.3659749536   -0.9513083684   -1.4443923349
18   
torsion grid (-105,)
C        3.9798537806   -1.5533134006   -2.3735692283
C        3.4066697023   -0.9890009121   -1.0608343962
C        2.8711074723    0.4096391239   -1.2240079675
C        1.5952126352    0.8065214942   -1.0849374823
C        1.1946166669    2.2480371337   -1.2905915601
C        0.4671112288   -0.1393188312   -0.7125438854
H        4.4008860022   -2.5540153306   -2.2247671203
H        4.7755805548   -0.9090237362   -2.7642698523
H        3.2013140233   -1.6195680571   -3.1410171995
H        2.6301273140   -1.6597526619   -0.6810244890
H        4.2021223330   -0.9817182469   -0.3027946111
H        3.6127367661    1.1615088453   -1.5008257156
H        0.4667350601    2.3388515623   -2.1077043023
H        0.7087488213    2.6527869670   -0.3926395490
H        2.0547243904    2.8811951256   -1.5267251393
H        0.5035094400   -0.4085434620    0.3502811560
H       -0.5081188935    0.3202012627   -0.8999829220
H        0.5072155834   -1.0729301147   -1.2822097523
18   
torsion grid (-90,)
C        3.9843624197   -1.5194397453   -2.4224110722
C        3.4103544371   -0.9883768287   -1.0964102679
C        2.8514857548    0.4042411630   -1.2316716731
C        1.5750112157    0.7951579776   -1.0776779097
C        1.1736585764    2.2404968569   -1.2583594421
C        0.4420260280   -0.1427662566   -0.7136223626
H        4.4268723670   -2.5135559318   -2.2931081754
H        4.7637544406   -0.8528543967   -2.8087249901
H        3.2011019491   -1.5891521803   -3.1846896163
H        2.6512613653   -1.6807669391   -0.7208930911
H        4.2111433273   -0.9782866146   -0.3441093732
H        3.5844676157    1.1676203409   -1.5006880514
H        0.4562735774    2.3465135914   -2.0827713225
H        0.6752508686    2.6257403239   -0.3586570770
H        2.0350955957    2.8804300910   -1.4698470558
H        0.3231632068   -0.2137314036    0.3755067037
H       -0.5084169815    0.2182870094   -1.1205805902
H        0.6002347463   -1.1574181978   -1.0879292702
18   
torsion grid (-75,)
C        3.9717309079   -1.4804248255   -2.4283801119
C        3.4296883291   -0.9378820964   -1.0934960884
C        2.8867594013    0.4615576467   -1.2246207953
C        1.6182428174    0.8800091778   -1.0735427407
C        1.2518036995    2.3345496734   -1.2593500955
C        0.4565679120   -0.0178439282   -0.7126530646
H        4.4070204337   -2.4782376839   -2.3030103294
H        4.7496561526   -0.8234298311   -2.8336267012
H        3.1723612734   -1.5459114320   -3.1740647071
H        2.6713294500   -1.6214430299   -0.7013683695
H        4.2451027355   -0.9336868925   -0.3571946929
H        3.6321744412    1.2126593601   -1.4946366356
H        0.5342731091    2.4553621553   -2.0815946800
H        0.7669181112    2.7362081913   -0.3595270274
H        2.1280553191    2.9517375888   -1.4771675228
H        0.1651084215    0.1268113629    0.3362191549
H       -0.4214856972    0.2235530036   -1.3233446975
H        0.6773436826   -1.0784572670   -0.8488833102
18   
torsion grid (-60,)
C        3.9510115896   -1.4759061009   -2.4553128027
C        3.4406757935   -0.9466027532   -1.1024472223
C        2.8904275106    0.4521307159   -1.2090986752
C        1.6189658544    0.8645649229   -1.0641809390
C        1.2520585745    2.3217551364   -1.2290684619
C        0.4523992448   -0.0363712019   -0.7347908912
H        4.3927926689   -2.4731038003   -2.3489642273
H        4.7160652374   -0.8127166017   -2.8746403158
H        3.1331002450   -1.5382950873   -3.1808298732
H        2.6944328820   -1.6372734136   -0.6998751692
H        4.2741836014   -0.9457743385   -0.3869109147
H        3.6341260645    1.2109739053   -1.4617070895
H        0.5141429760    2.4527016040   -2.0316350809
H        0.7921001519    2.7169854218   -0.3136443486
H        2.1244563040    2.9378144502   -1.4646386199
H       -0.0196475878    0.2727464302    0.2068946516
H       -0.3205394466    0.0404367551   -1.5104500956
H        0.7296837989   -1.0877926173   -0.6423093934
18   
torsion grid (-45,)
C        3.9796211800   -1.4283051942   -2.4429747431
C        3.5282418994   -0.8500816483   -1.0888562974
C        3.0140623901    0.5605283876   -1.2158880988
C        1.7546383991    1.0058900397   -1.0637669575
C        1.4187466542    2.4669824076   -1.2562326470
C        0.5730216463    0.1365033197   -0.7007335764
H        4.3933593022   -2.4361227024   -2.3244880200
H        4.7513895530   -0.8002572097   -2.9021146893
H        3.1379190852   -1.4826420418   -3.1413978736
H        2.7740631121   -1.5084227746   -0.6484372532
H        4.3838288601   -0.8566798939   -0.3999875303
H        3.7718698432    1.2945284853   -1.4979492155
H        0.6407060446    2.5947262912   -2.0207528817
H        1.0215862802    2.9024468137   -0.3298989568
H        2.2927649383    3.0500769377   -1.5599258201
H       -0.0362279301    0.6178957820    0.0738929347
H       -0.0850952313    0.0040981858   -1.5702299517
H        0.8566372102   -0.8554374675   -0.3447479458
18   
torsion grid (-30,)
C        3.9998682534   -1.4246717488   -2.4555675148
C        3.5510790070   -0.8330663860   -1.1061651199
C        3.0701517536    0.5882958731   -1.2410942268
C        1.8185195730    1.0529348535   -1.0853427546
C        1.4986073486    2.5151376400   -1.2918972550
C        0.6331330085    0.1901411296   -0.7054591350
H        4.3837220429   -2.4436785319   -2.3324035070
H        4.7938360485   -0.8190202199   -2.9068148333
H        3.1643972675   -1.4559196599   -3.1628502417
H        2.7747882229   -1.4710903495   -0.6739265730
H        4.4002075581   -0.8607385760   -0.4096963152
H        3.8399027529    1.3052491019   -1.5339636852
H        0.7097826268    2.6425088741   -2.0455136283
H        1.1216222256    2.9672311949   -0.3651346531
H        2.3747456616    3.0829887881   -1.6177730281
H       -0.1053510048    0.7721592634   -0.1433266591
H        0.1178266327   -0.1776752358   -1.6030045742
H        0.9100600391   -0.6794446492   -0.1053941441
18   
torsion grid (-15,)
C        3.9896967767   -1.4417872845   -2.4610248588
C        3.5106420006   -0.8484993377   -1.1230468440
C        3.0782171320    0.5879600603   -1.2607021504
C        1.8419775997    1.0825313818   -1.0809938080
C        1.5460887740    2.5484595748   -1.2920932899
C        0.6548218494    0.2306862031   -0.6679885561
H        4.3318692889   -2.4752189489   -2.3356313478
H        4.8218475259   -0.8606068463   -2.8740724868
H        3.1820240358   -1.4355137798   -3.2006111591
H        2.6968542008   -1.4626195431   -0.7261432822
H        4.3320160764   -0.9116370294   -0.3958102063
H        3.8637825211    1.2802050438   -1.5701065865
H        0.7583866859    2.6849762179   -2.0452282364
H        1.1775292419    3.0109393549   -0.3669414931
H        2.4310850286    3.1004872236   -1.6214234743
H       -0.1772775552    0.8573836824   -0.3324004647
H        0.2832024996   -0.3682268156   -1.5090212471
H        0.8990255359   -0.4617685461    0.1427393130
18   
torsion grid (0,)
C        3.9522129405   -1.5040763558   -2.4522332390
C        3.4761146408   -0.8817451787   -1.1267739724
C        3.0832676291    0.5641175425   -1.2831515376
C        1.8588484604    1.0862270372   -1.1026774612
C        1.5911791944    2.5565402243   -1.3184016618
C        0.6610209875    0.2527097265   -0.6777396448
H        4.2663878626   -2.5443651119   -2.3112468223
H        4.8029134202   -0.9494980176   -2.8641026811
H        3.1521876708   -1.4860608432   -3.1999652010
H        2.6422054337   -1.4672095189   -0.7278457524
H        4.2877918529   -0.9580751145   -0.3898935078
H        3.8856293604    1.2343052131   -1.5976360481
H        0.8256118869    2.7057135626   -2.0914951133
H        1.2058141432    3.0240325749   -0.4024858025
H        2.4931500679    3.0952715047   -1.6228628911
H       -0.2370057998    0.8717296417   -0.5924492157
H        0.4432953359   -0.5440269154   -1.3978588376
H        0.8214737059   -0.2241627845    0.2955806703
18   
torsion grid (15,)
C        3.9620524583   -1.4662302626   -2.4935552492
C        3.5056937338   -0.8679800704   -1.1503881202
C        3.0906968242    0.5747310272   -1.2771061423
C        1.8634010173    1.0825123435   -1.0753030540
C        1.5851664318    2.5564636991   -1.2507653738
C        0.6726339124    0.2376000352   -0.6586748968
H        4.2974396807   -2.5024471325   -2.3727663606
H        4.7932227085   -0.8916658689   -2.9177913601
H        3.1449175806   -1.4531132102   -3.2226704126
H        2.6913904958   -1.4710007217   -0.7375388788
H        4.3341880820   -0.9403031403   -0.4322224887
H        3.8835019670    1.2607363170   -1.5817708479
H        0.8337478539    2.7218962611   -2.0341502825
H        1.1768521885    2.9918942692   -0.3288532393
H        2.4876097162    3.1132145977   -1.5191786564
H       -0.2640348159    0.7846825382   -0.8040832598
H        0.6062965378   -0.6967937337   -1.2238016747
H        0.7240604095   -0.0264193027    0.4051184394
18   
torsion grid (30,)
C        3.9725936256   -1.4955159686   -2.5017997182
C        3.5421044394   -0.8900533360   -1.1534639162
C        3.1257649285    0.5523791258   -1.2807391192
C        1.9074989751    1.0779340195   -1.0670453222
C        1.6513484642    2.5555498644   -1.2508408714
C        0.7023631658    0.2710383692   -0.6301730592
H        4.3160472846   -2.5290677297   -2.3808138929
H        4.7913812686   -0.9198234469   -2.9480988887
H        3.1397103734   -1.4917903402   -3.2129310409
H        2.7395152854   -1.4932515962   -0.7191701587
H        4.3851412251   -0.9557096914   -0.4518947650
H        3.9193506193    1.2312074633   -1.5998091145
H        0.9077501131    2.7278239223   -2.0400607044
H        1.2431665343    3.0012811609   -0.3337631500
H        2.5632980045    3.0983562640   -1.5153842125
H       -0.2217176840    0.7206517022   -1.0097405203
H        0.7386100766   -0.7674982122   -0.9670146967
H        0.6150292249    0.2619839090    0.4645993679
18   
torsion grid (45,)
C        3.9624573652   -1.4533814762   -2.5294043315
C        3.5369739779   -0.8768969130   -1.1667750850
C        3.1067832575    0.5637317288   -1.2662509927
C        1.8876038657    1.0865439760   -1.0483701283
C        1.6361047235    2.5677863550   -1.2134832269
C        0.6740267521    0.2894472912   -0.6286296333
H        4.3186970490   -2.4848393526   -2.4293510758
H        4.7707420091   -0.8607286448   -2.9726599110
H        3.1231279349   -1.4468533596   -3.2328217225
H        2.7453469110   -1.4978531668   -0.7380253790
H        4.3866865305   -0.9457461491   -0.4737338076
H        3.8974272051    1.2512977445   -1.5742756341
H        0.8875415414    2.7530479807   -1.9950683541
H        1.2371967730    3.0048085995   -0.2882956870
H        2.5483437209    3.1094494536   -1.4791130387
H       -0.2026944562    0.5886379641   -1.2158930377
H        0.8045656199   -0.7885274864   -0.7392686617
H        0.4246018512    0.4915568064    0.4217911604
18   
torsion grid (60,)
C        3.9409790554   -1.4445136562   -2.5600917283
C        3.5369624123   -0.8896595268   -1.1817885925
C        3.1019109109    0.5511753226   -1.2535823877
C        1.8799061141    1.0688422840   -1.0379722707
C        1.6302035694    2.5531634194   -1.1784459415
C        0.6601457462    0.2680679878   -0.6480846218
H        4.3011729429   -2.4764425037   -2.4811212972
H        4.7403053784   -0.8433375027   -3.0080185249
H        3.0897853244   -1.4297717334   -3.2489300451
H        2.7536275724   -1.5201560564   -0.7519232581
H        4.3983697858   -0.9666332629   -0.5043754298
H        3.8925321531    1.2463248743   -1.5442379808
H        0.8604209439    2.7522284663   -1.9358552239
H        1.2602430491    2.9798586500   -0.2367715771
H        2.5368217244    3.0940405037   -1.4640920817
H       -0.1290371237    0.3815947299   -1.4027845275
H        0.8609154022   -0.7985414527   -0.5340525946
H        0.2431501054    0.6363867564    0.2980840352
18   
torsion grid (75,)
C        3.9370033923   -1.4205134181   -2.5625387658
C        3.5868178087   -0.8465661046   -1.1769517959
C        3.1743606267    0.6008394991   -1.2489058013
C        1.9580838552    1.1324089262   -1.0351741111
C        1.7233441880    2.6185312014   -1.1800060750
C        0.7309607701    0.3403767390   -0.6449748910
H        4.2785254457   -2.4589534987   -2.4855968967
H        4.7339821146   -0.8393212389   -3.0399291597
H        3.0653541964   -1.3939757776   -3.2249079137
H        2.8042740652   -1.4589920730   -0.7200483580
H        4.4674445843   -0.9344261881   -0.5262816178
H        3.9726751786    1.2848609471   -1.5444755256
H        0.9256314157    2.8219986115   -1.9069496624
H        1.3980881068    3.0576644049   -0.2277365267
H        2.6245336682    3.1442578259   -1.5081170713
H        0.0523791089    0.2339293657   -1.5019067461
H        0.9653049293   -0.6646046209   -0.2883098788
H        0.1707172116    0.8559267089    0.1439316115
18   
torsion grid (90,)
C        3.9587463652   -1.4214840651   -2.5825048835
C        3.6041241826   -0.8383255601   -1.2017294884
C        3.2243788351    0.6174423047   -1.2807355961
C        2.0164806452    1.1657389001   -1.0640447679
C        1.7953952496    2.6521052070   -1.2216259952
C        0.7873645915    0.3772421985   -0.6601360266
H        4.2703147077   -2.4689469764   -2.5010900413
H        4.7785056243   -0.8624891245   -3.0476167893
H        3.0982263571   -1.3710414089   -3.2579373792
H        2.7989538169   -1.4304322212   -0.7571235305
H        4.4736584644   -0.9479426170   -0.5393342189
H        4.0329468293    1.2852565337   -1.5848891907
H        0.9921905366    2.8557097973   -1.9425861555
H        1.4837553219    3.1037828771   -0.2706721002
H        2.6982188999    3.1655566026   -1.5645400756
H        0.2338122544    0.0332130635   -1.5437212725
H        1.0307293210   -0.5084412217   -0.0680004367
H        0.1032777619    0.9956558762   -0.0695237261
18   
torsion grid (105,)
C        3.9535595132   -1.4200336745   -2.5988530106
C        3.5738793956   -0.8422617073   -1.2226594616
C        3.2267133910    0.6217498321   -1.2969182275
C        2.0292033835    1.1823974593   -1.0586116252
C        1.8157410128    2.6697225155   -1.2112844427
C        0.8068435701    0.3876382536   -0.6340475665
H        4.2350186383   -2.4761896879   -2.5205797141
H        4.8012286910   -0.8781199035   -3.0331601184
H        3.1153080327   -1.3396271107   -3.2990131111
H        2.7419105813   -1.4178175425   -0.8060638959
H        4.4217188501   -0.9792961849   -0.5372560038
H        4.0425986284    1.2762139117   -1.6099399014
H        1.0178861583    2.8787656612   -1.9365754089
H        1.4999813788    3.1199062057   -0.2608790277
H        2.7230269897    3.1803011037   -1.5467885963
H        0.3842389844   -0.1764097231   -1.4748186416
H        1.0361501226   -0.3341750637    0.1556334867
H        0.0205768290    1.0491249206   -0.2577542841
18   
torsion grid (120,)
C        4.0828558960   -1.6652915031   -2.0785801147
C        3.4887902822   -0.9034612948   -0.8796226320
C        3.0045772742    0.4714883296   -1.2595556164
C        1.7380129886    0.9165092119   -1.2132755854
C        1.3800631620    2.3171524471   -1.6492440438
C        0.5796104134    0.0592977570   -0.7301368656
H        4.4608004207   -2.6482232763   -1.7756168715
H        4.9147002632   -1.1089845608   -2.5251714830
H        3.3278348161   -1.8137832155   -2.8579145566
H        2.6767238042   -1.4908316710   -0.4404599296
H        4.2602040899   -0.8129426437   -0.1022135353
H        3.7744027156    1.1519034387   -1.6286661532
H        0.6516631691    2.2972442858   -2.4708625922
H        0.9105590264    2.8758874661   -0.8286738849
H        2.2577795544    2.8770568545   -1.9848052182
H        0.4613004437   -0.8446658427   -1.3381465481
H        0.7151432299   -0.2620665311    0.3084854061
H       -0.3636676875    0.6112925674   -0.7803136853
18   
torsion grid (135,)
C        4.0860891259   -1.6273250675   -2.1278898443
C        3.5129557893   -0.8876819366   -0.9052765176
C        3.0030181377    0.4864015580   -1.2539282435
C        1.7321494531    0.9165946616   -1.1860074358
C        1.3581996811    2.3257158497   -1.5799669271
C        0.5837105961    0.0425108724   -0.7138064757
H        4.4875676889   -2.6073140786   -1.8463552147
H        4.8964929797   -1.0528841375   -2.5907090231
H        3.3125316027   -1.7792718888   -2.8881649643
H        2.7219611009   -1.4904381874   -0.4490049236
H        4.3027122478   -0.7946421381   -0.1469932163
H        3.7606720416    1.1856588260   -1.6130309520
H        0.6439727521    2.3220628200   -2.4139809932
H        0.8659048438    2.8485807099   -0.7490205935
H        2.2319353489    2.9112042415   -1.8803477110
H        0.6146288198   -0.9572920042   -1.1574149015
H        0.5901489420   -0.0778501147    0.3764317650
H       -0.3791837469    0.4882618936   -0.9826229111
18   
torsion grid (150,)
C        4.0850522548   -1.6224769119   -2.1591477947
C        3.5212373805   -0.9004500919   -0.9219092147
C        2.9965134439    0.4731880868   -1.2503979417
C        1.7270143165    0.9070327776   -1.1722040103
C        1.3608177694    2.3232370892   -1.5502477015
C        0.5677138210    0.0488812947   -0.7085124478
H        4.5038413766   -2.5991839158   -1.8917732687
H        4.8805112582   -1.0336607506   -2.6298412343
H        3.3016894077   -1.7785994321   -2.9084159545
H        2.7446769612   -1.5162199018   -0.4588773153
H        4.3204038641   -0.8057404784   -0.1738751905
H        3.7503598361    1.1785013709   -1.6062522297
H        0.6593152138    2.3331553145   -2.3948207442
H        0.8567952498    2.8344947599   -0.7190625639
H        2.2396278045    2.9120576622   -1.8282585493
H        0.7073735338   -1.0104452562   -0.9373410379
H        0.4098127716    0.1443078150    0.3735512424
H       -0.3618771608    0.3672802875   -1.1933884768
18   
torsion grid (165,)
C        4.0670243873   -1.5807810008   -2.2121142214
C        3.5010248734   -0.9055448155   -0.9496351950
C        2.9515495288    0.4682105534   -1.2347835964
C        1.6772854514    0.8886573784   -1.1535453519
C        1.3051399557    2.3131847670   -1.4951952016
C        0.5138096534    0.0223908272   -0.7279995341
H        4.5065394525   -2.5565170247   -1.9763145070
H        4.8469815189   -0.9638234263   -2.6726128132
H        3.2796789338   -1.7303297551   -2.9584737180
H        2.7408672266   -1.5501101809   -0.4992946985
H        4.3048891915   -0.8178318511   -0.2059199443
H        3.6973048773    1.1940634002   -1.5659925236
H        0.6040420425    2.3428585945   -2.3396542994
H        0.7991709034    2.8009122648   -0.6512612002
H        2.1816899806    2.9122613954   -1.7577426024
H        0.7455118052   -1.0443703990   -0.7375547018
H        0.1765790692    0.2893615075    0.2822385137
H       -0.3422029716    0.1805977737   -1.3954620144
18   
torsion grid (180,)
C        4.0512055055   -1.5518238318   -2.2161562544
C        3.5276204443   -0.8517282660   -0.9486184924
C        3.0069232133    0.5326444114   -1.2366798544
C        1.7411806440    0.9813076704   -1.1707912058
C        1.4061463825    2.4133646013   -1.5203502396
C        0.5509589113    0.1476180318   -0.7592777515
H        4.4711748046   -2.5360252533   -1.9798107367
H        4.8365484798   -0.9585849932   -2.6980897984
H        3.2451553153   -1.6884162848   -2.9447610008
H        2.7608774644   -1.4748349630   -0.4797784094
H        4.3482481536   -0.7776220283   -0.2221256688
H        3.7699783272    1.2420494478   -1.5641395809
H        0.6830988634    2.4575955399   -2.3456125673
H        0.9405868845    2.9268218881   -0.6686742268
H        2.2941718816    2.9797017094   -1.8149223982
H        0.8092399581   -0.8830183485   -0.5102805607
H        0.0534702879    0.5908418114    0.1131421445
H       -0.1952304414    0.1227438807   -1.5640515361
