18   
torsion grid (-165,)
C        5.7244983738    1.1333021236    0.7669613101
C        4.6113961766    1.7740014938    1.3358354210
C        5.4944032552    0.0643538800   -0.0901260096
C        3.3230677933    1.3439737517    1.0375177122
C        3.2252329128    0.2549226314    0.1363088660
C        2.0849760486    1.9771535260    1.6148596560
C        1.8451138448   -1.4518995659   -0.7864228837
N        4.2610283104   -0.3761955277   -0.4020211946
O        1.9650238444   -0.1677614298   -0.1559772501
H        6.7371620467    1.4540044513    0.9915160895
H        4.7503193064    2.6070058533    2.0217760747
H        6.3220095000   -0.4727046071   -0.5505372768
H        2.3459279299    2.7878041220    2.3008409114
H        1.4841741488    1.2400462040    2.1579225044
H        1.4447220491    2.3835186270    0.8247380096
H        0.7726624760   -1.6439533126   -0.8441567862
H        2.3403271092   -2.2230086034   -0.1890380834
H        2.2858067046   -1.4426762278   -1.7866327997
18   
torsion grid (-150,)
C        5.7231877640    1.1356369554    0.7762331863
C        4.6043902924    1.7518180523    1.3578263862
C        5.5031998502    0.1196330210   -0.1471440448
C        3.3184769206    1.3524392132    1.0047999114
C        3.2311882876    0.3284998837    0.0311530647
C        2.0742707658    1.9599801315    1.5969921172
C        1.8283578583   -1.4351006386   -0.7330216699
N        4.2742170117   -0.2863359334   -0.5134306679
O        1.9747923908   -0.0670600320   -0.3212426341
H        6.7334311143    1.4301016012    1.0438023679
H        4.7351971621    2.5360995030    2.1004735108
H        6.3366262947   -0.4013289198   -0.6155799761
H        2.3281149648    2.7028783264    2.3582732173
H        1.4427990913    1.1916734166    2.0549334104
H        1.4673982544    2.4471487005    0.8265379366
H        0.7528936288   -1.5990130807   -0.8177798366
H        2.2567124545   -2.1080811752    0.0166361677
H        2.3172376064   -1.6148097883   -1.6936681558
18   
torsion grid (-135,)
C        5.7388110145    1.1339689976    0.7717161528
C        4.6122302046    1.7146923476    1.3699080589
C        5.5345051984    0.1754790761   -0.2170988532
C        3.3311092662    1.3374510218    0.9697077242
C        3.2602003497    0.3793590364   -0.0669461869
C        2.0780811684    1.9103466000    1.5787083462
C        1.8049652951   -1.4022711313   -0.6600069768
N        4.3132803297   -0.2029751838   -0.6295568948
O        2.0100848329    0.0079374130   -0.4802753202
H        6.7446212887    1.4096782558    1.0741008112
H        4.7303646185    2.4516228519    2.1615660255
H        6.3765732086   -0.3166783990   -0.7011092884
H        2.3208824073    2.6053611335    2.3873902207
H        1.4387647346    1.1176028804    1.9804732282
H        1.4836707227    2.4439979793    0.8300333574
H        0.7457391705   -1.5198680906   -0.8944235852
H        2.0446756005   -1.9413504544    0.2637405046
H        2.4190433779   -1.7908470926   -1.4760518013
18   
torsion grid (-120,)
C        5.7503731486    1.1332689769    0.7664389792
C        4.6131550376    1.6696744622    1.3816875565
C        5.5678288677    0.2346047116   -0.2832544487
C        3.3396501410    1.3062323206    0.9397147906
C        3.2910835329    0.4117969725   -0.1506153940
C        2.0741011937    1.8389623728    1.5605493823
C        1.7661691107   -1.3498879302   -0.5644404891
N        4.3566950289   -0.1259235866   -0.7350483396
O        2.0521595889    0.0555531349   -0.6223308365
H        6.7500792130    1.3983337235    1.0976072794
H        4.7146869749    2.3616500895    2.2151087488
H        6.4214069358   -0.2179989729   -0.7854722036
H        2.3005977581    2.4844719299    2.4137685106
H        1.4291200624    1.0239631206    1.9042703502
H        1.4922333417    2.4153743240    0.8343522749
H        0.7704669265   -1.4755084832   -0.9930482428
H        1.7660739251   -1.6961266680    0.4769069107
H        2.4981544857   -1.9212094063   -1.1423088692
18   
torsion grid (-105,)
C        5.7666927715    1.1368086479    0.7895299832
C        4.6081990565    1.6230031409    1.4054262965
C        5.6235655745    0.2980528375   -0.3149821314
C        3.3515704015    1.2674459044    0.9099348775
C        3.3426216227    0.4320532516   -0.2263147142
C        2.0639736701    1.7570360223    1.5219791105
C        1.7368019443   -1.2732852520   -0.4746164547
N        4.4294770740   -0.0548710293   -0.8156129479
O        2.1247150732    0.0773708909   -0.7597897557
H        6.7541768472    1.3982592929    1.1584004274
H        4.6796275831    2.2729603241    2.2750237205
H        6.4962023467   -0.1100858062   -0.8224647449
H        2.2619059523    2.3878394348    2.3930920590
H        1.4311387288    0.9225073130    1.8411166644
H        1.4817066052    2.3355295131    0.7982152604
H        0.7739137701   -1.4280521894   -0.9646817347
H        1.6269067699   -1.4261949584    0.6071245041
H        2.4739004463   -1.9790803075   -0.8720695815
18   
torsion grid (-90,)
C        5.7796197428    1.1169702963    0.8102473723
C        4.6024151498    1.5439713978    1.4327270758
C        5.6701853739    0.3431678767   -0.3445428012
C        3.3602196182    1.1906258719    0.8991686672
C        3.3845176072    0.4112986702   -0.2770000074
C        2.0596563664    1.6368605689    1.5189078978
C        1.6626806115   -1.1932980025   -0.3876283048
N        4.4914961528   -0.0096963242   -0.8798386842
O        2.1908225176    0.0503375253   -0.8631488114
H        6.7557619059    1.3809094833    1.2066535395
H        4.6468779007    2.1552855800    2.3317524508
H        6.5586686585   -0.0099301730   -0.8657013893
H        2.2256756529    2.4553854368    2.2248361648
H        1.5747699387    0.8207766199    2.0672050460
H        1.3569353613    1.9703713428    0.7510219559
H        0.7165550188   -1.3477867746   -0.9096676365
H        1.4804338343   -1.1629649117    0.6941454364
H        2.3497786392   -2.0156695632   -0.6187874273
18   
torsion grid (-75,)
C        5.8104850142    1.1064228000    0.8174990908
C        4.6121721466    1.4711300842    1.4367641944
C        5.7383978564    0.3878525092   -0.3755276450
C        3.3867431227    1.1078133412    0.8704337621
C        3.4483675106    0.3678073818   -0.3312093361
C        2.0772581534    1.5371026146    1.4864635294
C        1.5999676248   -1.1159974050   -0.3498837263
N        4.5791423970    0.0171042410   -0.9376097363
O        2.2909647877   -0.0245609342   -0.9667151559
H        6.7723878585    1.3820029454    1.2398752885
H        4.6244626342    2.0526311823    2.3565548268
H        6.6433019101    0.0934778040   -0.9050156853
H        2.1961833900    2.4843216144    2.0206179203
H        1.7073249797    0.8004948413    2.2095715313
H        1.3088829934    1.6658800285    0.7203473216
H        0.7074271303   -1.2928474969   -0.9529117034
H        1.3004983094   -0.8858911880    0.6786738503
H        2.2269873782   -2.0157811413   -0.3527776064
18   
torsion grid (-60,)
C        5.8299274983    1.1266630220    0.7677914409
C        4.6262176009    1.4226840223    1.4122862619
C        5.7657917493    0.4490945315   -0.4490372139
C        3.4064314243    1.0310805558    0.8523358066
C        3.4781656939    0.3152281828   -0.3652665765
C        2.0973414561    1.4263958149    1.4919841817
C        1.4896217976   -1.0298269400   -0.3167025105
N        4.6149193799    0.0426333684   -1.0013574412
O        2.3507779411   -0.1240954812   -1.0164408846
H        6.7858098339    1.4282195416    1.1857715492
H        4.6277479203    1.9807663707    2.3464194901
H        6.6717679420    0.2159452637   -1.0065513374
H        2.2497040898    2.2569219625    2.1868017475
H        1.6481928427    0.6034340319    2.0588302002
H        1.3721212107    1.7430184355    0.7367345051
H        1.0082882608   -1.6435614852   -1.0813279037
H        0.7187936493   -0.5019728149    0.2538038241
H        2.0617961291   -1.6791035353    0.3552466674
18   
torsion grid (-45,)
C        5.8482145619    1.1599278947    0.7856930470
C        4.6332580723    1.3953058925    1.4325613615
C        5.8073496658    0.4993141864   -0.4413716438
C        3.4265259726    0.9589240855    0.8753810460
C        3.5269337055    0.2451142420   -0.3441708479
C        2.1139239099    1.3481076617    1.5175706225
C        1.4557160699   -1.0020483037   -0.2609275564
N        4.6752879351    0.0411717165   -0.9878428408
O        2.4470084397   -0.2849795977   -1.0015955252
H        6.7905061658    1.4985239294    1.2057856397
H        4.6120043281    1.9489409503    2.3690556176
H        6.7184022089    0.3213035489   -1.0109927702
H        2.2780420356    2.1482983738    2.2443622200
H        1.6363239120    0.5180792996    2.0479388384
H        1.4042451145    1.7173755191    0.7713779302
H        1.0560612184   -1.7534841352   -0.9457091605
H        0.6399984818   -0.3513059747    0.0673954905
H        1.8946138034   -1.5077947716    0.6059334328
18   
torsion grid (-30,)
C        5.8761725445    1.2157612306    0.7698664605
C        4.6535261653    1.4116580707    1.4135662136
C        5.8555734847    0.5353486230   -0.4464816555
C        3.4584215781    0.9202934080    0.8741041131
C        3.5837756010    0.1853009952   -0.3336212021
C        2.1491053385    1.3038195302    1.5335825271
C        1.4300852587   -0.9565759962   -0.2828647126
N        4.7411916149    0.0224069003   -0.9758133734
O        2.5568022002   -0.4390047038   -0.9894115618
H        6.8044614116    1.5990847290    1.1823133402
H        4.6135658750    1.9797058777    2.3406319435
H        6.7690559826    0.3854951899   -1.0204634357
H        2.3348169799    2.0625180922    2.2985089633
H        1.6470599497    0.4651436676    2.0238931119
H        1.4498183789    1.7354264579    0.8114618504
H        0.9980560699   -1.7126173956   -0.9417156496
H        0.6765644172   -0.1902660177   -0.0826522557
H        1.7319885161   -1.4349867725    0.6550880303
18   
torsion grid (-15,)
C        5.8504727516    1.2811659894    0.7225088607
C        4.6276935949    1.4554217877    1.3706391926
C        5.8453365816    0.5258817816   -0.4484662095
C        3.4457487009    0.8810668333    0.8839865942
C        3.5868868029    0.0899858428   -0.2886383370
C        2.1465611867    1.2338451639    1.5852717045
C        1.3524260836   -0.9319728022   -0.3051178215
N        4.7474271089   -0.0595956780   -0.9312196327
O        2.6038213869   -0.6269940328   -0.9143138091
H        6.7646540964    1.7290072656    1.0997420520
H        4.5755498082    2.0669519654    2.2688308867
H        6.7579177715    0.3757595032   -1.0239731505
H        2.3521833091    1.9531746794    2.3823012044
H        1.6518992397    0.3759430295    2.0466014669
H        1.4328196258    1.7068125229    0.9046949311
H        0.8852737894   -1.6610641164   -0.9696939885
H        0.7005770976   -0.0582413941   -0.2272518975
H        1.4851735073   -1.3891953050    0.6808972446
18   
torsion grid (0,)
C        5.7714143369    1.3650594870    0.6446188289
C        4.5479923361    1.5341140584    1.2924046281
C        5.8045562279    0.4662747454   -0.4191551680
C        3.3973632026    0.8368169473    0.8993113667
C        3.5653420685   -0.0495242475   -0.2004853824
C        2.1203741504    1.1008760203    1.6783552741
C        1.2550686079   -0.9059779441   -0.3570002711
N        4.7335200764   -0.2174181623   -0.8259002047
O        2.6132498226   -0.8425631005   -0.7804876869
H        6.6599689296    1.9073862570    0.9528201830
H        4.4731678714    2.2251938006    2.1291989233
H        6.7252620990    0.2827818782   -0.9718143230
H        2.3272016811    1.8282663934    2.4676077132
H        1.7282009495    0.2053413779    2.1662248843
H        1.3251914849    1.5220232411    1.0582648080
H        0.7846557353   -1.6219625796   -1.0332176452
H        0.7461020850    0.0567279748   -0.4567133306
H        1.1594209090   -1.2766027664    0.6674472585
18   
torsion grid (15,)
C        5.7909223189    1.4705522394    0.5607067363
C        4.5698787328    1.6392431595    1.2135630727
C        5.8695298817    0.4479003228   -0.3825144934
C        3.4601716736    0.8342306952    0.9233681337
C        3.6575058265   -0.1362633318   -0.0964256816
C        2.2166965056    1.0090614928    1.7762129268
C        1.3172028141   -0.8201994829   -0.4008708680
N        4.8298569708   -0.3235284935   -0.7068878408
O        2.7169725675   -0.9890405984   -0.6064371835
H        6.6502285187    2.0936165603    0.7886922776
H        4.4705884175    2.4012887699    1.9835398971
H        6.8007803111    0.2381895350   -0.9072459786
H        2.4140676445    1.7546997901    2.5508350239
H        1.9412469799    0.0824188684    2.2878485334
H        1.3456475425    1.3530939711    1.2136947797
H        0.8443225615   -1.5309633749   -1.0810660635
H        0.9902205788    0.1907302916   -0.6654553767
H        1.0127129706   -1.0558090607    0.6219439367
18   
torsion grid (30,)
C        5.7775384575    1.5299374824    0.5017745594
C        4.5653386608    1.6924356636    1.1739018114
C        5.8813279662    0.4523619108   -0.3762614849
C        3.4878314263    0.8255546214    0.9542896360
C        3.7006115470   -0.1885631482   -0.0156683798
C        2.2581011620    0.9548829421    1.8302747687
C        1.3715444902   -0.7703714672   -0.4420303500
N        4.8654888111   -0.3752457477   -0.6375750342
O        2.7615312300   -1.0935182248   -0.4324142739
H        6.6169785308    2.1969765651    0.6725635130
H        4.4535429769    2.4898349041    1.9056000128
H        6.8130281401    0.2443650063   -0.9006978907
H        2.4606140391    1.6598814661    2.6409476468
H        1.9934892058   -0.0016055047    2.2905525643
H        1.3785944618    1.3216039716    1.2937908788
H        0.9190835616   -1.4611223366   -1.1565055570
H        1.2022969272    0.2557973789   -0.7857028238
H        0.9036463836   -0.9162219178    0.5351640601
18   
torsion grid (45,)
C        5.7287823079    1.5405185420    0.4610264451
C        4.5360774401    1.7048006417    1.1684356449
C        5.8244179196    0.4440580589   -0.3947754426
C        3.4722577015    0.8120579136    0.9999696341
C        3.6735073728   -0.2237239458    0.0546816338
C        2.2465949996    0.9235605598    1.8786691131
C        1.3723829629   -0.7366789950   -0.4875275103
N        4.8166328842   -0.4109316305   -0.6032250062
O        2.7200007558   -1.1575010022   -0.2588964690
H        6.5631232900    2.2238332791    0.5874966207
H        4.4332699774    2.5188256709    1.8831237441
H        6.7430036990    0.2420230545   -0.9439154881
H        2.4552402007    1.5815090273    2.7266296460
H        1.9583441300   -0.0529558094    2.2788364173
H        1.3801554388    1.3352589717    1.3512923563
H        0.9579826076   -1.4409827195   -1.2124650598
H        1.3368071616    0.2727677414   -0.9113325154
H        0.7718118660   -0.7730336311    0.4260640905
18   
torsion grid (60,)
C        5.7062789068    1.5207236941    0.4316294047
C        4.5451342009    1.6807928588    1.1919188796
C        5.7723230109    0.4274684731   -0.4311080738
C        3.4858489236    0.7766526372    1.0685469912
C        3.6602299720   -0.2669616693    0.1301413760
C        2.2661735525    0.8864022318    1.9514327883
C        1.4094117085   -0.7744513323   -0.5347722890
N        4.7672056653   -0.4444400962   -0.5869606425
O        2.6937045764   -1.2199752511   -0.0834704421
H        6.5406493129    2.2103123443    0.5190837246
H        4.4648832000    2.5000105073    1.9036106808
H        6.6638982844    0.2403264913   -1.0278030811
H        2.4841053552    1.5075091651    2.8246402560
H        1.9486180783   -0.0988195743    2.3051171838
H        1.4168820665    1.3412705585    1.4297877492
H        0.9927599076   -1.5947100599   -1.1234835008
H        1.5005085519    0.1125619717   -1.1714573203
H        0.7358548479   -0.5572615631    0.3003523482
18   
torsion grid (75,)
C        5.6674331178    1.5624422971    0.4285666229
C        4.5420731870    1.6941495387    1.2462908082
C        5.7053379230    0.4926604237   -0.4652913372
C        3.4893331396    0.7793755947    1.1496880630
C        3.6417311512   -0.2504634531    0.1949317274
C        2.2878821450    0.8636385454    2.0596042977
C        1.4880095295   -0.7592209387   -0.6543364792
N        4.7078606421   -0.3947011096   -0.5873262957
O        2.6599619814   -1.2036896903    0.0371597921
H        6.4969690627    2.2607177498    0.4908948162
H        4.4836621705    2.5013968428    1.9737860192
H        6.5667312683    0.3372558736   -1.1131464357
H        2.5630472121    1.3118909062    3.0187925405
H        1.8704843737   -0.1283919013    2.2482119011
H        1.4932285381    1.4833377902    1.6273715978
H        0.8071288813   -1.6119838998   -0.6816124255
H        1.7394455442   -0.4595863984   -1.6789203517
H        0.9988731041    0.0765506315   -0.1417033808
18   
torsion grid (90,)
C        5.6456312140    1.5440475974    0.4459720746
C        4.5595599645    1.6799840374    1.3163702826
C        5.6200542935    0.5025001214   -0.4807490411
C        3.4856932505    0.7891028279    1.2406770621
C        3.5838237867   -0.2259542963    0.2653083604
C        2.2969361462    0.8782526082    2.1645689323
C        1.5284738190   -0.7654659790   -0.7526074954
N        4.6035379958   -0.3682404298   -0.5749245821
O        2.5660111589   -1.1485713325    0.1575727756
H        6.4914749777    2.2240778115    0.4879569280
H        4.5461736186    2.4759985770    2.0580646495
H        6.4441920842    0.3549155264   -1.1769552147
H        2.5196811573    1.5155876803    3.0248415306
H        2.0089585261   -0.1126820077    2.5248644631
H        1.4235378416    1.3028534837    1.6560147876
H        0.7837572936   -1.5631352037   -0.7267837525
H        1.9268909781   -0.6659213601   -1.7690661950
H        1.0597809000    0.1795926638   -0.4500187878
18   
torsion grid (105,)
C        5.6469638272    1.5183412582    0.4640504892
C        4.5998446643    1.6488280353    1.3829279009
C        5.5543057913    0.5184699595   -0.5032217641
C        3.5012041320    0.7887622665    1.3171700596
C        3.5387350192   -0.1950024285    0.3073075664
C        2.3411584895    0.8709860714    2.2761982139
C        1.5926066079   -0.8135527964   -0.8667753392
N        4.5138882610   -0.3251743910   -0.5858632455
O        2.4860647692   -1.0773385023    0.2232808596
H        6.5101283165    2.1767865678    0.4947673156
H        4.6324010397    2.4228779132    2.1468211746
H        6.3413985613    0.3835417874   -1.2434177454
H        2.4795967907    1.6917445784    2.9855064390
H        2.2318995996   -0.0610529230    2.8391275567
H        1.3964286646    1.0324883815    1.7468876407
H        0.8234849844   -1.5870859101   -0.8297768065
H        2.1243297061   -0.8634590066   -1.8229185688
H        1.1255598739    0.1740395201   -0.7565456551
18   
torsion grid (120,)
C        5.6379647846    1.4914363904    0.4607348667
C        4.6272210416    1.6237299443    1.4201275158
C        5.4735486518    0.5350605005   -0.5398041025
C        3.4950598670    0.8087565588    1.3630615885
C        3.4636486587   -0.1399627720    0.3189756090
C        2.3669463017    0.9026436157    2.3577628806
C        1.6188301097   -0.8799201716   -0.9652546119
N        4.4009632154   -0.2680254448   -0.6144594032
O        2.3736326007   -0.9716747944    0.2522288269
H        6.5243098432    2.1185050969    0.4835854882
H        4.7117092855    2.3702721455    2.2070566462
H        6.2268159358    0.4027721958   -1.3148916375
H        2.5411901754    1.7150886576    3.0687740290
H        2.2580309056   -0.0313095694    2.9181670944
H        1.4108785835    1.0810546502    1.8552945060
H        0.8126639460   -1.6103791083   -0.8790458815
H        2.2450594059   -1.1127979881   -1.8311348569
H        1.1949073854    0.1262343480   -1.0758466559
18   
torsion grid (135,)
C        5.6263161124    1.4923996723    0.4659185075
C        4.6453197341    1.6081673732    1.4601523596
C        5.4040945835    0.5911791515   -0.5716828065
C        3.4894978596    0.8308071992    1.4007610424
C        3.4004581936   -0.0693307601    0.3147396929
C        2.3898010969    0.9140028624    2.4268779343
C        1.6633769151   -0.9508569697   -1.0450766701
N        4.3048968789   -0.1769461339   -0.6522301173
O        2.2781454142   -0.8488699456    0.2490349393
H        6.5301831370    2.0936487207    0.4910174349
H        4.7722282219    2.3170364459    2.2757154058
H        6.1281870430    0.4758034720   -1.3766312574
H        2.6085953686    1.6856402972    3.1702946321
H        2.2615948441   -0.0411412287    2.9463817629
H        1.4294643207    1.1464248709    1.9553738863
H        0.7462493347   -1.5222389158   -0.8929593528
H        2.3167001229   -1.4647355780   -1.7543789707
H        1.4219501612    0.0465462217   -1.4301437364
18   
torsion grid (150,)
C        5.6116252216    1.4910896529    0.4729620887
C        4.6546102868    1.5905994614    1.4946554324
C        5.3365095959    0.6511727887   -0.6004134253
C        3.4731067183    0.8578042204    1.4256249576
C        3.3284007423    0.0172658999    0.2957511231
C        2.3981007450    0.9249814701    2.4780963761
C        1.6943365814   -1.0078600360   -1.0974945645
N        4.2074306100   -0.0738211774   -0.6949620761
O        2.1743674459   -0.7051722028    0.2217819449
H        6.5360750398    2.0595230847    0.5071704171
H        4.8234293315    2.2534591577    2.3407344464
H        6.0384393404    0.5501617687   -1.4265637688
H        2.6570629213    1.6515034735    3.2533304408
H        2.2491827110   -0.0502916073    2.9533783258
H        1.4367218466    1.2102113989    2.0386006547
H        0.7030341932   -1.4405375692   -0.9533273088
H        2.3499582505   -1.7200110059   -1.6045858688
H        1.6262048131   -0.0953561875   -1.6983873125
18   
torsion grid (165,)
C        5.6125629738    1.4808718910    0.4780664261
C        4.6723923204    1.5688068241    1.5181287067
C        5.2907690754    0.7044502386   -0.6280383196
C        3.4619528937    0.8899218416    1.4325131621
C        3.2641215442    0.1193047229    0.2597941518
C        2.4058916691    0.9426497810    2.5044597632
C        1.7160309508   -1.0521167913   -1.1188110028
N        4.1294323348    0.0327871959   -0.7425082486
O        2.0798954806   -0.5457250967    0.1742462535
H        6.5608505155    2.0072527949    0.5273932097
H        4.8819118163    2.1771733178    2.3954515065
H        5.9795791977    0.6099010762   -1.4658537058
H        2.7094967202    1.6075526608    3.3178256117
H        2.2177282951   -0.0523311541    2.9218277436
H        1.4529580541    1.2986005148    2.0992677970
H        0.7099361164   -1.4558862135   -0.9958981716
H        2.4051045194   -1.8360397247   -1.4434118654
H        1.7181954032   -0.2495852335   -1.8622114608
18   
torsion grid (180,)
C        5.7202526031    1.1486685879    0.7492997739
C        4.6086010816    1.8047128783    1.3046628410
C        5.4895734462    0.0303168744   -0.0412053705
C        3.3220285349    1.3379076064    1.0621290603
C        3.2239266834    0.1879645557    0.2390452984
C        2.0852588355    1.9893685443    1.6214932278
C        1.8431546085   -1.4310471146   -0.8302165192
N        4.2571297255   -0.4492558181   -0.2963855352
O        1.9646319682   -0.2673394697    0.0011192679
H        6.7316991211    1.4999566617    0.9289883719
H        4.7478330581    2.6842109022    1.9298053955
H        6.3152690057   -0.5150120836   -0.4952302595
H        2.3461388788    2.8482983099    2.2459895314
H        1.5069075456    1.2822149939    2.2252668533
H        1.4235524073    2.3314615365    0.8185229538
H        0.7715590348   -1.6252902074   -0.8948487666
H        2.3610707661   -2.2847071788   -0.3845652004
H        2.2596636147   -1.2458571358   -1.8240880552
