70
1 1 C23H38NO6S2
C                    -1.260936454177     5.738383231259    -5.693152862240
C                    -0.256245205840     5.037936609832    -4.790405497414
N                    -0.803518726626     4.678600280164    -3.421133974339
C                    -1.245436911886     5.872562214438    -2.599930695677
C                    -0.125509361809     6.873798417140    -2.348790171340
C                    -1.897923070271     3.623904653560    -3.484349362215
C                    -1.865825424383     2.689235954109    -2.274580333147
C                    -0.701115035746     1.690140495479    -2.366070887080
C                    -0.338848080351     0.954213796226    -1.066924059967
C                     0.974539752184     0.106117826969    -1.198738658202
C                     1.111210932479    -0.713484563629     0.117295907070
O                     2.211504441675    -0.942243865930     0.607968749822
C                    -0.136980516125    -1.257161166370     0.666876127193
C                    -0.106057765356    -2.213928576019     1.700437966492
C                    -1.283556186965    -2.772638833434     2.176854843981
C                    -2.512604655264    -2.374593730567     1.622570307249
C                    -2.566188621023    -1.418096772807     0.610270887651
C                    -1.376990043660    -0.858556871360     0.137670393871
O                    -1.469399254523     0.065966627820    -0.867888112412
C                     2.258419869687     0.967517470055    -1.334262344174
C                     2.618796588210     1.490461285398    -2.736724877922
S                     2.719538488020     3.304781680196    -2.871938132667
O                     1.604920125272     3.912145109498    -2.079876230238
O                     2.780864676212     3.657353278283    -4.300209030571
C                     4.252943123201     3.751306347782    -2.047945444508
C                     0.848873071282    -0.948730192088    -2.335298375012
C                     2.073578344084    -1.852595300894    -2.476235332179
S                     1.727875312730    -3.342365248017    -3.471833680878
O                     0.447735694925    -3.896642053470    -3.003840606069
O                     2.956564665500    -4.145807826042    -3.476734163480
C                     1.472555219781    -2.712228471074    -5.149327518369
C                    -0.246429545386     1.928001645803     0.125023222581
H                    -0.794689838791     5.889078740076    -6.670300039878
H                    -2.166102053020     5.145685032874    -5.849812140011
H                    -1.546909549812     6.722762737337    -5.314606680144
H                     0.631828170186     5.646205985227    -4.622038935872
H                     0.088674373362     4.097693684646    -5.224332572323
H                     0.009774120044     4.281633190651    -2.912797566720
H                    -2.091069714688     6.325533636311    -3.119462191153
H                    -1.612289542360     5.464538607412    -1.656475125062
H                    -0.487254738978     7.624934870660    -1.641665836232
H                     0.750383841815     6.388174083731    -1.910947798917
H                     0.175578543118     7.398912176553    -3.258124321326
H                    -1.750610496110     3.062439928219    -4.409439737190
H                    -2.847854240622     4.155094198159    -3.562262684160
H                    -2.816817303994     2.151685175552    -2.232605044277
H                    -1.813775231143     3.283402439333    -1.359436489442
H                     0.185904219277     2.220833185012    -2.698737711934
H                    -0.946787444962     0.949569546521    -3.131632552609
H                     0.860867401939    -2.508829949552     2.096150165168
H                    -1.257616989036    -3.517595507862     2.965897160702
H                    -3.437200466510    -2.812097196737     1.988984096354
H                    -3.511046415995    -1.097412398581     0.182206979816
H                     3.084314209070     0.353668942286    -0.974001197954
H                     2.193553687043     1.798035161935    -0.628560649079
H                     3.598741319382     1.143082466237    -3.077298028354
H                     1.907002174258     1.231480720221    -3.521990668562
H                     4.302585898806     4.841515580880    -2.061219923631
H                     4.225416769356     3.380794472772    -1.022230117887
H                     5.084558656706     3.322565828675    -2.608813670714
H                     0.660802479882    -0.446309191918    -3.288572251968
H                    -0.025408046887    -1.575120008080    -2.144732289722
H                     2.937666747162    -1.367361611394    -2.937900093144
H                     2.398055659469    -2.273279313932    -1.520872422348
H                     1.299887294200    -3.593273278346    -5.770620855103
H                     0.593326993206    -2.066524348365    -5.169147623248
H                     2.372446530533    -2.191904807897    -5.481742820003
H                     0.248144174800     1.482006721647     0.990019545582
H                    -1.250582795127     2.215019390170     0.443298258258
H                     0.304753753595     2.829806159718    -0.151742517679
