
  -OEChem-12122420533D

 70 71  0     1  0  0  0  0  0999 V2000
   -3.4250    1.4827   -3.4766 C   0  0  0  0  0  0  0  0  0  0  0  0
   -2.6975    2.8144   -3.3526 C   0  0  0  0  0  0  0  0  0  0  0  0
   -1.2080    2.6928   -3.5888 N   0  3  0  0  0  0  0  0  0  0  0  0
   -0.8323    2.0846   -4.9327 C   0  0  0  0  0  0  0  0  0  0  0  0
   -1.3800    2.8541   -6.1242 C   0  0  0  0  0  0  0  0  0  0  0  0
   -0.4947    4.0094   -3.3192 C   0  0  0  0  0  0  0  0  0  0  0  0
    0.0897    4.1051   -1.9070 C   0  0  0  0  0  0  0  0  0  0  0  0
    1.1897    3.0517   -1.6262 C   0  0  0  0  0  0  0  0  0  0  0  0
    0.7725    1.8387   -0.7510 C   0  0  2  0  0  0  0  0  0  0  0  0
    1.4624    0.4971   -1.1693 C   0  0  0  0  0  0  0  0  0  0  0  0
    0.9030   -0.6324   -0.2737 C   0  0  0  0  0  0  0  0  0  0  0  0
    1.5857   -1.5867    0.0634 O   0  0  0  0  0  0  0  0  0  0  0  0
   -0.5412   -0.5340    0.0460 C   0  0  0  0  0  0  0  0  0  0  0  0
   -1.2017   -1.5846    0.7046 C   0  0  0  0  0  0  0  0  0  0  0  0
   -2.5619   -1.4994    0.9845 C   0  0  0  0  0  0  0  0  0  0  0  0
   -3.2746   -0.3485    0.6168 C   0  0  0  0  0  0  0  0  0  0  0  0
   -2.6322    0.7123   -0.0256 C   0  0  0  0  0  0  0  0  0  0  0  0
   -1.2714    0.6112   -0.3114 C   0  0  0  0  0  0  0  0  0  0  0  0
   -0.6738    1.6676   -0.9743 O   0  0  0  0  0  0  0  0  0  0  0  0
    3.0044    0.5258   -1.0472 C   0  0  0  0  0  0  0  0  0  0  0  0
    3.7616    1.2666   -2.1656 C   0  0  0  0  0  0  0  0  0  0  0  0
    5.2629    0.3391   -2.6363 S   0  0  0  0  0  0  0  0  0  0  0  0
    4.8122   -0.9878   -3.1185 O   0  0  0  0  0  0  0  0  0  0  0  0
    6.2406    0.4251   -1.5453 O   0  0  0  0  0  0  0  0  0  0  0  0
    5.8634    1.2504   -4.0712 C   0  0  0  0  0  0  0  0  0  0  0  0
    0.9877    0.1121   -2.6006 C   0  0  0  0  0  0  0  0  0  0  0  0
    1.6849   -1.0959   -3.2382 C   0  0  0  0  0  0  0  0  0  0  0  0
    1.8240   -0.7297   -5.0148 S   0  0  0  0  0  0  0  0  0  0  0  0
    2.5204    0.5797   -5.1328 O   0  0  0  0  0  0  0  0  0  0  0  0
    0.4762   -0.8334   -5.6129 O   0  0  0  0  0  0  0  0  0  0  0  0
    2.9058   -2.0085   -5.6592 C   0  0  0  0  0  0  0  0  0  0  0  0
    0.9814    2.1993    0.7256 C   0  0  0  0  0  0  0  0  0  0  0  0
   -4.4627    1.6228   -3.1623 H   0  0  0  0  0  0  0  0  0  0  0  0
   -3.4390    1.1108   -4.5031 H   0  0  0  0  0  0  0  0  0  0  0  0
   -2.9863    0.7186   -2.8290 H   0  0  0  0  0  0  0  0  0  0  0  0
   -2.7986    3.2246   -2.3456 H   0  0  0  0  0  0  0  0  0  0  0  0
   -3.0781    3.5526   -4.0598 H   0  0  0  0  0  0  0  0  0  0  0  0
   -0.8915    2.0402   -2.8553 H   0  0  0  0  0  0  0  0  0  0  0  0
    0.2579    2.0550   -4.9576 H   0  0  0  0  0  0  0  0  0  0  0  0
   -1.1714    1.0492   -4.9299 H   0  0  0  0  0  0  0  0  0  0  0  0
   -0.9860    2.3868   -7.0300 H   0  0  0  0  0  0  0  0  0  0  0  0
   -2.4705    2.8168   -6.1840 H   0  0  0  0  0  0  0  0  0  0  0  0
   -1.0630    3.9009   -6.1275 H   0  0  0  0  0  0  0  0  0  0  0  0
   -1.2078    4.8130   -3.5094 H   0  0  0  0  0  0  0  0  0  0  0  0
    0.3059    4.0925   -4.0558 H   0  0  0  0  0  0  0  0  0  0  0  0
   -0.7012    4.0683   -1.1547 H   0  0  0  0  0  0  0  0  0  0  0  0
    0.5273    5.1057   -1.8430 H   0  0  0  0  0  0  0  0  0  0  0  0
    2.0199    3.5392   -1.1120 H   0  0  0  0  0  0  0  0  0  0  0  0
    1.5996    2.7252   -2.5831 H   0  0  0  0  0  0  0  0  0  0  0  0
   -0.6204   -2.4589    0.9819 H   0  0  0  0  0  0  0  0  0  0  0  0
   -3.0686   -2.3146    1.4915 H   0  0  0  0  0  0  0  0  0  0  0  0
   -4.3336   -0.2698    0.8461 H   0  0  0  0  0  0  0  0  0  0  0  0
   -3.1691    1.6217   -0.2789 H   0  0  0  0  0  0  0  0  0  0  0  0
    3.3271   -0.5162   -1.0045 H   0  0  0  0  0  0  0  0  0  0  0  0
    3.2916    0.9380   -0.0793 H   0  0  0  0  0  0  0  0  0  0  0  0
    3.2081    1.3461   -3.1007 H   0  0  0  0  0  0  0  0  0  0  0  0
    4.1017    2.2588   -1.8615 H   0  0  0  0  0  0  0  0  0  0  0  0
    6.7559    0.7209   -4.4106 H   0  0  0  0  0  0  0  0  0  0  0  0
    5.0867    1.2359   -4.8376 H   0  0  0  0  0  0  0  0  0  0  0  0
    6.1238    2.2653   -3.7664 H   0  0  0  0  0  0  0  0  0  0  0  0
    1.1537    0.9734   -3.2461 H   0  0  0  0  0  0  0  0  0  0  0  0
   -0.0864   -0.0771   -2.5967 H   0  0  0  0  0  0  0  0  0  0  0  0
    2.7033   -1.2630   -2.8894 H   0  0  0  0  0  0  0  0  0  0  0  0
    1.1088   -2.0177   -3.1397 H   0  0  0  0  0  0  0  0  0  0  0  0
    3.0317   -1.7972   -6.7227 H   0  0  0  0  0  0  0  0  0  0  0  0
    3.8538   -1.9429   -5.1223 H   0  0  0  0  0  0  0  0  0  0  0  0
    2.4213   -2.9760   -5.5173 H   0  0  0  0  0  0  0  0  0  0  0  0
    0.6456    1.4152    1.4059 H   0  0  0  0  0  0  0  0  0  0  0  0
    0.4241    3.1110    0.9589 H   0  0  0  0  0  0  0  0  0  0  0  0
    2.0367    2.3907    0.9287 H   0  0  0  0  0  0  0  0  0  0  0  0
  1  2  1  0  0  0  0
  1 33  1  0  0  0  0
  1 34  1  0  0  0  0
  1 35  1  0  0  0  0
  2  3  1  0  0  0  0
  2 36  1  0  0  0  0
  2 37  1  0  0  0  0
  3  4  1  0  0  0  0
  3  6  1  0  0  0  0
  3 38  1  0  0  0  0
  4  5  1  0  0  0  0
  4 39  1  0  0  0  0
  4 40  1  0  0  0  0
  5 41  1  0  0  0  0
  5 42  1  0  0  0  0
  5 43  1  0  0  0  0
  6  7  1  0  0  0  0
  6 44  1  0  0  0  0
  6 45  1  0  0  0  0
  7  8  1  0  0  0  0
  7 46  1  0  0  0  0
  7 47  1  0  0  0  0
  8  9  1  0  0  0  0
  8 48  1  0  0  0  0
  8 49  1  0  0  0  0
  9 10  1  0  0  0  0
  9 19  1  0  0  0  0
  9 32  1  0  0  0  0
 10 11  1  0  0  0  0
 10 20  1  0  0  0  0
 10 26  1  0  0  0  0
 11 12  2  0  0  0  0
 11 13  1  0  0  0  0
 13 14  1  0  0  0  0
 13 18  2  0  0  0  0
 14 15  2  0  0  0  0
 14 50  1  0  0  0  0
 15 16  1  0  0  0  0
 15 51  1  0  0  0  0
 16 17  2  0  0  0  0
 16 52  1  0  0  0  0
 17 18  1  0  0  0  0
 17 53  1  0  0  0  0
 18 19  1  0  0  0  0
 20 21  1  0  0  0  0
 20 54  1  0  0  0  0
 20 55  1  0  0  0  0
 21 22  1  0  0  0  0
 21 56  1  0  0  0  0
 21 57  1  0  0  0  0
 22 23  2  0  0  0  0
 22 24  2  0  0  0  0
 22 25  1  0  0  0  0
 25 58  1  0  0  0  0
 25 59  1  0  0  0  0
 25 60  1  0  0  0  0
 26 27  1  0  0  0  0
 26 61  1  0  0  0  0
 26 62  1  0  0  0  0
 27 28  1  0  0  0  0
 27 63  1  0  0  0  0
 27 64  1  0  0  0  0
 28 29  2  0  0  0  0
 28 30  2  0  0  0  0
 28 31  1  0  0  0  0
 31 65  1  0  0  0  0
 31 66  1  0  0  0  0
 31 67  1  0  0  0  0
 32 68  1  0  0  0  0
 32 69  1  0  0  0  0
 32 70  1  0  0  0  0
M  CHG  1   3   1
M  END
$$$$
