70
1 1 C23H38NO6S2
C                    -0.388703738655     5.357762780333     2.944624644300
C                    -1.301293561470     4.629154723614     1.964854557483
N                    -1.890869709564     3.362034712020     2.538419269003
C                    -2.609725268420     3.555404140043     3.863212315082
C                    -3.778266799518     4.529706550957     3.815532755178
C                    -2.760029323686     2.608635099864     1.551016827526
C                    -2.072236033172     2.238847266280     0.233405954470
C                    -0.783357196610     1.404567653610     0.350048073680
C                    -0.960573770742    -0.133588400244     0.305814071264
C                     0.423337148819    -0.843776073432     0.532039096277
C                     1.361523955952    -0.468987134199    -0.646068101379
O                     2.574342638578    -0.380362985047    -0.483117176453
C                     0.736111990653    -0.328281432766    -1.969938479365
C                     1.528899320953    -0.197394323429    -3.127356350946
C                     0.938060291446    -0.118969001365    -4.380753712655
C                    -0.463538937309    -0.170622078859    -4.489513017631
C                    -1.265740949324    -0.285416517629    -3.356404933262
C                    -0.663046688682    -0.359230811732    -2.095517168680
O                    -1.484481948050    -0.480683379334    -1.014071649952
C                     0.238304537326    -2.388639580726     0.436863452793
C                     1.511867069789    -3.246468373037     0.507121152155
S                     1.869853653605    -3.820759142149     2.215697028047
O                     0.574155257412    -4.082117967296     2.875868458813
O                     2.813870115021    -2.884729965131     2.861847120143
C                     2.725431511274    -5.386686982239     1.969358887441
C                     1.169748743070    -0.427494841245     1.822938347304
C                     0.585838389535    -0.803156261404     3.193761830719
S                    -0.104717523526     0.608276185906     4.143206184496
O                    -1.571798965991     0.474318372342     4.293089850803
O                     0.350760467917     1.897892065778     3.535077025186
C                     0.663023881144     0.469360717435     5.762113278379
C                    -2.083608924572    -0.631853512482     1.215756907337
H                     0.117306522365     6.164975126847     2.408589535109
H                    -0.936343010854     5.808628759546     3.775014666885
H                     0.377770260136     4.688130359553     3.345131860559
H                    -0.732177050082     4.325907283533     1.086484137749
H                    -2.131290220176     5.254195270013     1.629278019985
H                    -1.082261859244     2.759096474224     2.783442838166
H                    -2.920897190149     2.556376786520     4.171324153171
H                    -1.849592749401     3.886093223282     4.571241051085
H                    -4.209674350601     4.587157833731     4.818586157713
H                    -3.471951343431     5.540667988311     3.535264967764
H                    -4.573202351164     4.203037150728     3.141251983571
H                    -3.627239586551     3.239999758439     1.350167336752
H                    -3.097825759583     1.722334049444     2.087446078486
H                    -1.865642683617     3.149115218248    -0.335907357923
H                    -2.814102238604     1.698122826779    -0.362717877880
H                    -0.238955123664     1.669369760783     1.255794127006
H                    -0.120189739106     1.687368596456    -0.471764743044
H                     2.607535337326    -0.169969561024    -3.006291437403
H                     1.550506716570    -0.023242315068    -5.272003268509
H                    -0.931839961504    -0.113870278397    -5.468416068755
H                    -2.348753213604    -0.318124114337    -3.427800469463
H                    -0.260668942110    -2.616262485550    -0.507909186982
H                    -0.437389894157    -2.736840344390     1.220340693253
H                     1.364272629387    -4.163006916197    -0.070116345546
H                     2.414891077877    -2.746230138901     0.152228736283
H                     3.024603106768    -5.723691679068     2.963541411930
H                     2.039747621665    -6.101292173863     1.512436295131
H                     3.606105635201    -5.213525027397     1.348469037746
H                     1.389819818130     0.640513402283     1.800941397884
H                     2.151179546727    -0.896232082091     1.777746968062
H                    -0.205909171048    -1.552417818899     3.185873846424
H                     1.386150275805    -1.195175559873     3.825448181412
H                     0.249336188801     1.275037090053     6.370880874118
H                     0.402789737489    -0.503075274873     6.183646218665
H                     1.742221132283     0.580626697815     5.648227129957
H                    -2.194239289037    -1.713829901788     1.145620373680
H                    -3.030473359526    -0.208817105656     0.873065412905
H                    -1.948232466283    -0.360290467930     2.259899438584
