
  -OEChem-12102412493D

 70 71  0     1  0  0  0  0  0999 V2000
   -1.2609    5.7384   -5.6932 C   0  0  0  0  0  0  0  0  0  0  0  0
   -0.2562    5.0379   -4.7904 C   0  0  0  0  0  0  0  0  0  0  0  0
   -0.8035    4.6786   -3.4211 N   0  3  0  0  0  0  0  0  0  0  0  0
   -1.2454    5.8726   -2.5999 C   0  0  0  0  0  0  0  0  0  0  0  0
   -0.1255    6.8738   -2.3488 C   0  0  0  0  0  0  0  0  0  0  0  0
   -1.8979    3.6239   -3.4843 C   0  0  0  0  0  0  0  0  0  0  0  0
   -1.8658    2.6892   -2.2746 C   0  0  0  0  0  0  0  0  0  0  0  0
   -0.7011    1.6901   -2.3661 C   0  0  0  0  0  0  0  0  0  0  0  0
   -0.3388    0.9542   -1.0669 C   0  0  2  0  0  0  0  0  0  0  0  0
    0.9745    0.1061   -1.1987 C   0  0  0  0  0  0  0  0  0  0  0  0
    1.1112   -0.7135    0.1173 C   0  0  0  0  0  0  0  0  0  0  0  0
    2.2115   -0.9422    0.6080 O   0  0  0  0  0  0  0  0  0  0  0  0
   -0.1370   -1.2572    0.6669 C   0  0  0  0  0  0  0  0  0  0  0  0
   -0.1061   -2.2139    1.7004 C   0  0  0  0  0  0  0  0  0  0  0  0
   -1.2836   -2.7726    2.1769 C   0  0  0  0  0  0  0  0  0  0  0  0
   -2.5126   -2.3746    1.6226 C   0  0  0  0  0  0  0  0  0  0  0  0
   -2.5662   -1.4181    0.6103 C   0  0  0  0  0  0  0  0  0  0  0  0
   -1.3770   -0.8586    0.1377 C   0  0  0  0  0  0  0  0  0  0  0  0
   -1.4694    0.0660   -0.8679 O   0  0  0  0  0  0  0  0  0  0  0  0
    2.2584    0.9675   -1.3343 C   0  0  0  0  0  0  0  0  0  0  0  0
    2.6188    1.4905   -2.7367 C   0  0  0  0  0  0  0  0  0  0  0  0
    2.7195    3.3048   -2.8719 S   0  0  0  0  0  0  0  0  0  0  0  0
    1.6049    3.9121   -2.0799 O   0  0  0  0  0  0  0  0  0  0  0  0
    2.7809    3.6574   -4.3002 O   0  0  0  0  0  0  0  0  0  0  0  0
    4.2529    3.7513   -2.0479 C   0  0  0  0  0  0  0  0  0  0  0  0
    0.8489   -0.9487   -2.3353 C   0  0  0  0  0  0  0  0  0  0  0  0
    2.0736   -1.8526   -2.4762 C   0  0  0  0  0  0  0  0  0  0  0  0
    1.7279   -3.3424   -3.4718 S   0  0  0  0  0  0  0  0  0  0  0  0
    0.4477   -3.8966   -3.0038 O   0  0  0  0  0  0  0  0  0  0  0  0
    2.9566   -4.1458   -3.4767 O   0  0  0  0  0  0  0  0  0  0  0  0
    1.4726   -2.7122   -5.1493 C   0  0  0  0  0  0  0  0  0  0  0  0
   -0.2464    1.9280    0.1250 C   0  0  0  0  0  0  0  0  0  0  0  0
   -0.7947    5.8891   -6.6703 H   0  0  0  0  0  0  0  0  0  0  0  0
   -2.1661    5.1457   -5.8498 H   0  0  0  0  0  0  0  0  0  0  0  0
   -1.5469    6.7228   -5.3146 H   0  0  0  0  0  0  0  0  0  0  0  0
    0.6318    5.6462   -4.6220 H   0  0  0  0  0  0  0  0  0  0  0  0
    0.0887    4.0977   -5.2243 H   0  0  0  0  0  0  0  0  0  0  0  0
    0.0098    4.2816   -2.9128 H   0  0  0  0  0  0  0  0  0  0  0  0
   -2.0911    6.3255   -3.1195 H   0  0  0  0  0  0  0  0  0  0  0  0
   -1.6123    5.4645   -1.6565 H   0  0  0  0  0  0  0  0  0  0  0  0
   -0.4873    7.6249   -1.6417 H   0  0  0  0  0  0  0  0  0  0  0  0
    0.7504    6.3882   -1.9109 H   0  0  0  0  0  0  0  0  0  0  0  0
    0.1756    7.3989   -3.2581 H   0  0  0  0  0  0  0  0  0  0  0  0
   -1.7506    3.0624   -4.4094 H   0  0  0  0  0  0  0  0  0  0  0  0
   -2.8479    4.1551   -3.5623 H   0  0  0  0  0  0  0  0  0  0  0  0
   -2.8168    2.1517   -2.2326 H   0  0  0  0  0  0  0  0  0  0  0  0
   -1.8138    3.2834   -1.3594 H   0  0  0  0  0  0  0  0  0  0  0  0
    0.1859    2.2208   -2.6987 H   0  0  0  0  0  0  0  0  0  0  0  0
   -0.9468    0.9496   -3.1316 H   0  0  0  0  0  0  0  0  0  0  0  0
    0.8609   -2.5088    2.0962 H   0  0  0  0  0  0  0  0  0  0  0  0
   -1.2576   -3.5176    2.9659 H   0  0  0  0  0  0  0  0  0  0  0  0
   -3.4372   -2.8121    1.9890 H   0  0  0  0  0  0  0  0  0  0  0  0
   -3.5110   -1.0974    0.1822 H   0  0  0  0  0  0  0  0  0  0  0  0
    3.0843    0.3537   -0.9740 H   0  0  0  0  0  0  0  0  0  0  0  0
    2.1936    1.7980   -0.6286 H   0  0  0  0  0  0  0  0  0  0  0  0
    3.5987    1.1431   -3.0773 H   0  0  0  0  0  0  0  0  0  0  0  0
    1.9070    1.2315   -3.5220 H   0  0  0  0  0  0  0  0  0  0  0  0
    4.3026    4.8415   -2.0612 H   0  0  0  0  0  0  0  0  0  0  0  0
    4.2254    3.3808   -1.0222 H   0  0  0  0  0  0  0  0  0  0  0  0
    5.0846    3.3226   -2.6088 H   0  0  0  0  0  0  0  0  0  0  0  0
    0.6608   -0.4463   -3.2886 H   0  0  0  0  0  0  0  0  0  0  0  0
   -0.0254   -1.5751   -2.1447 H   0  0  0  0  0  0  0  0  0  0  0  0
    2.9377   -1.3674   -2.9379 H   0  0  0  0  0  0  0  0  0  0  0  0
    2.3981   -2.2733   -1.5209 H   0  0  0  0  0  0  0  0  0  0  0  0
    1.2999   -3.5933   -5.7706 H   0  0  0  0  0  0  0  0  0  0  0  0
    0.5933   -2.0665   -5.1691 H   0  0  0  0  0  0  0  0  0  0  0  0
    2.3724   -2.1919   -5.4817 H   0  0  0  0  0  0  0  0  0  0  0  0
    0.2481    1.4820    0.9900 H   0  0  0  0  0  0  0  0  0  0  0  0
   -1.2506    2.2150    0.4433 H   0  0  0  0  0  0  0  0  0  0  0  0
    0.3048    2.8298   -0.1517 H   0  0  0  0  0  0  0  0  0  0  0  0
  1  2  1  0  0  0  0
  1 33  1  0  0  0  0
  1 34  1  0  0  0  0
  1 35  1  0  0  0  0
  2  3  1  0  0  0  0
  2 36  1  0  0  0  0
  2 37  1  0  0  0  0
  3  4  1  0  0  0  0
  3  6  1  0  0  0  0
  3 38  1  0  0  0  0
  4  5  1  0  0  0  0
  4 39  1  0  0  0  0
  4 40  1  0  0  0  0
  5 41  1  0  0  0  0
  5 42  1  0  0  0  0
  5 43  1  0  0  0  0
  6  7  1  0  0  0  0
  6 44  1  0  0  0  0
  6 45  1  0  0  0  0
  7  8  1  0  0  0  0
  7 46  1  0  0  0  0
  7 47  1  0  0  0  0
  8  9  1  0  0  0  0
  8 48  1  0  0  0  0
  8 49  1  0  0  0  0
  9 10  1  0  0  0  0
  9 19  1  0  0  0  0
  9 32  1  0  0  0  0
 10 11  1  0  0  0  0
 10 20  1  0  0  0  0
 10 26  1  0  0  0  0
 11 12  2  0  0  0  0
 11 13  1  0  0  0  0
 13 14  1  0  0  0  0
 13 18  2  0  0  0  0
 14 15  2  0  0  0  0
 14 50  1  0  0  0  0
 15 16  1  0  0  0  0
 15 51  1  0  0  0  0
 16 17  2  0  0  0  0
 16 52  1  0  0  0  0
 17 18  1  0  0  0  0
 17 53  1  0  0  0  0
 18 19  1  0  0  0  0
 20 21  1  0  0  0  0
 20 54  1  0  0  0  0
 20 55  1  0  0  0  0
 21 22  1  0  0  0  0
 21 56  1  0  0  0  0
 21 57  1  0  0  0  0
 22 23  2  0  0  0  0
 22 24  2  0  0  0  0
 22 25  1  0  0  0  0
 25 58  1  0  0  0  0
 25 59  1  0  0  0  0
 25 60  1  0  0  0  0
 26 27  1  0  0  0  0
 26 61  1  0  0  0  0
 26 62  1  0  0  0  0
 27 28  1  0  0  0  0
 27 63  1  0  0  0  0
 27 64  1  0  0  0  0
 28 29  2  0  0  0  0
 28 30  2  0  0  0  0
 28 31  1  0  0  0  0
 31 65  1  0  0  0  0
 31 66  1  0  0  0  0
 31 67  1  0  0  0  0
 32 68  1  0  0  0  0
 32 69  1  0  0  0  0
 32 70  1  0  0  0  0
M  CHG  1   3   1
M  END
$$$$
