
  -OEChem-12102412493D

 70 71  0     1  0  0  0  0  0999 V2000
   -6.6024    3.9808    0.7542 C   0  0  0  0  0  0  0  0  0  0  0  0
   -5.4540    3.2702    1.4569 C   0  0  0  0  0  0  0  0  0  0  0  0
   -4.0869    3.8023    1.0593 N   0  3  0  0  0  0  0  0  0  0  0  0
   -3.9019    5.2931    1.3199 C   0  0  0  0  0  0  0  0  0  0  0  0
   -4.0102    5.6800    2.7875 C   0  0  0  0  0  0  0  0  0  0  0  0
   -2.9601    2.9698    1.6523 C   0  0  0  0  0  0  0  0  0  0  0  0
   -2.7826    1.6274    0.9474 C   0  0  0  0  0  0  0  0  0  0  0  0
   -1.5304    0.9359    1.5039 C   0  0  0  0  0  0  0  0  0  0  0  0
   -1.2822   -0.4879    0.9383 C   0  0  2  0  0  0  0  0  0  0  0  0
    0.2003   -0.9231    1.2159 C   0  0  0  0  0  0  0  0  0  0  0  0
    1.1594   -0.0684    0.3663 C   0  0  0  0  0  0  0  0  0  0  0  0
    2.3161    0.1243    0.7223 O   0  0  0  0  0  0  0  0  0  0  0  0
    0.6481    0.4477   -0.9201 C   0  0  0  0  0  0  0  0  0  0  0  0
    1.5042    1.1263   -1.8078 C   0  0  0  0  0  0  0  0  0  0  0  0
    1.0473    1.5449   -3.0514 C   0  0  0  0  0  0  0  0  0  0  0  0
   -0.2817    1.2799   -3.4248 C   0  0  0  0  0  0  0  0  0  0  0  0
   -1.1490    0.6192   -2.5555 C   0  0  0  0  0  0  0  0  0  0  0  0
   -0.6830    0.2093   -1.3003 C   0  0  0  0  0  0  0  0  0  0  0  0
   -1.5624   -0.4528   -0.4937 O   0  0  0  0  0  0  0  0  0  0  0  0
    0.4720   -2.4128    0.8738 C   0  0  0  0  0  0  0  0  0  0  0  0
    0.2228   -2.8607   -0.5708 C   0  0  0  0  0  0  0  0  0  0  0  0
    0.3057   -4.6813   -0.5777 S   0  0  0  0  0  0  0  0  0  0  0  0
   -0.8959   -5.1552    0.1338 O   0  0  0  0  0  0  0  0  0  0  0  0
    1.6473   -5.0779   -0.1216 O   0  0  0  0  0  0  0  0  0  0  0  0
    0.1426   -5.1169   -2.3217 C   0  0  0  0  0  0  0  0  0  0  0  0
    0.4975   -0.6881    2.7244 C   0  0  0  0  0  0  0  0  0  0  0  0
    1.7586   -1.3336    3.3020 C   0  0  0  0  0  0  0  0  0  0  0  0
    1.8584   -0.7725    5.0361 S   0  0  0  0  0  0  0  0  0  0  0  0
    0.6985   -1.3399    5.7498 O   0  0  0  0  0  0  0  0  0  0  0  0
    2.0611    0.6886    5.0231 O   0  0  0  0  0  0  0  0  0  0  0  0
    3.3584   -1.5560    5.6585 C   0  0  0  0  0  0  0  0  0  0  0  0
   -2.3128   -1.4837    1.4742 C   0  0  0  0  0  0  0  0  0  0  0  0
   -7.5287    3.4502    0.9888 H   0  0  0  0  0  0  0  0  0  0  0  0
   -6.7258    5.0145    1.0837 H   0  0  0  0  0  0  0  0  0  0  0  0
   -6.4856    3.9664   -0.3347 H   0  0  0  0  0  0  0  0  0  0  0  0
   -5.4458    2.2097    1.2053 H   0  0  0  0  0  0  0  0  0  0  0  0
   -5.5187    3.3582    2.5419 H   0  0  0  0  0  0  0  0  0  0  0  0
   -4.0191    3.6892    0.0422 H   0  0  0  0  0  0  0  0  0  0  0  0
   -2.9170    5.5395    0.9172 H   0  0  0  0  0  0  0  0  0  0  0  0
   -4.6476    5.8100    0.7149 H   0  0  0  0  0  0  0  0  0  0  0  0
   -3.8193    6.7534    2.8667 H   0  0  0  0  0  0  0  0  0  0  0  0
   -5.0067    5.4971    3.1962 H   0  0  0  0  0  0  0  0  0  0  0  0
   -3.2706    5.1710    3.4097 H   0  0  0  0  0  0  0  0  0  0  0  0
   -3.1798    2.8467    2.7139 H   0  0  0  0  0  0  0  0  0  0  0  0
   -2.0520    3.5699    1.5597 H   0  0  0  0  0  0  0  0  0  0  0  0
   -2.6659    1.7842   -0.1309 H   0  0  0  0  0  0  0  0  0  0  0  0
   -3.6595    0.9920    1.0923 H   0  0  0  0  0  0  0  0  0  0  0  0
   -1.6108    0.8622    2.5915 H   0  0  0  0  0  0  0  0  0  0  0  0
   -0.6651    1.5750    1.3000 H   0  0  0  0  0  0  0  0  0  0  0  0
    2.5302    1.2943   -1.4946 H   0  0  0  0  0  0  0  0  0  0  0  0
    1.7139    2.0598   -3.7364 H   0  0  0  0  0  0  0  0  0  0  0  0
   -0.6408    1.5893   -4.4028 H   0  0  0  0  0  0  0  0  0  0  0  0
   -2.1752    0.3987   -2.8361 H   0  0  0  0  0  0  0  0  0  0  0  0
   -0.1248   -3.0307    1.5503 H   0  0  0  0  0  0  0  0  0  0  0  0
    1.5187   -2.6215    1.1007 H   0  0  0  0  0  0  0  0  0  0  0  0
   -0.7686   -2.6025   -0.9408 H   0  0  0  0  0  0  0  0  0  0  0  0
    0.9867   -2.4876   -1.2573 H   0  0  0  0  0  0  0  0  0  0  0  0
    0.1525   -6.2079   -2.3597 H   0  0  0  0  0  0  0  0  0  0  0  0
   -0.8069   -4.7347   -2.6996 H   0  0  0  0  0  0  0  0  0  0  0  0
    0.9929   -4.7115   -2.8720 H   0  0  0  0  0  0  0  0  0  0  0  0
   -0.3482   -1.0522    3.3123 H   0  0  0  0  0  0  0  0  0  0  0  0
    0.5824    0.3853    2.9032 H   0  0  0  0  0  0  0  0  0  0  0  0
    1.7080   -2.4238    3.3343 H   0  0  0  0  0  0  0  0  0  0  0  0
    2.6609   -0.9983    2.7908 H   0  0  0  0  0  0  0  0  0  0  0  0
    3.4512   -1.2431    6.7002 H   0  0  0  0  0  0  0  0  0  0  0  0
    3.2465   -2.6395    5.5971 H   0  0  0  0  0  0  0  0  0  0  0  0
    4.2116   -1.2024    5.0779 H   0  0  0  0  0  0  0  0  0  0  0  0
   -2.1985   -2.4634    1.0085 H   0  0  0  0  0  0  0  0  0  0  0  0
   -3.3242   -1.1371    1.2479 H   0  0  0  0  0  0  0  0  0  0  0  0
   -2.2288   -1.6057    2.5554 H   0  0  0  0  0  0  0  0  0  0  0  0
  1  2  1  0  0  0  0
  1 33  1  0  0  0  0
  1 34  1  0  0  0  0
  1 35  1  0  0  0  0
  2  3  1  0  0  0  0
  2 36  1  0  0  0  0
  2 37  1  0  0  0  0
  3  4  1  0  0  0  0
  3  6  1  0  0  0  0
  3 38  1  0  0  0  0
  4  5  1  0  0  0  0
  4 39  1  0  0  0  0
  4 40  1  0  0  0  0
  5 41  1  0  0  0  0
  5 42  1  0  0  0  0
  5 43  1  0  0  0  0
  6  7  1  0  0  0  0
  6 44  1  0  0  0  0
  6 45  1  0  0  0  0
  7  8  1  0  0  0  0
  7 46  1  0  0  0  0
  7 47  1  0  0  0  0
  8  9  1  0  0  0  0
  8 48  1  0  0  0  0
  8 49  1  0  0  0  0
  9 10  1  0  0  0  0
  9 19  1  0  0  0  0
  9 32  1  0  0  0  0
 10 11  1  0  0  0  0
 10 20  1  0  0  0  0
 10 26  1  0  0  0  0
 11 12  2  0  0  0  0
 11 13  1  0  0  0  0
 13 14  1  0  0  0  0
 13 18  2  0  0  0  0
 14 15  2  0  0  0  0
 14 50  1  0  0  0  0
 15 16  1  0  0  0  0
 15 51  1  0  0  0  0
 16 17  2  0  0  0  0
 16 52  1  0  0  0  0
 17 18  1  0  0  0  0
 17 53  1  0  0  0  0
 18 19  1  0  0  0  0
 20 21  1  0  0  0  0
 20 54  1  0  0  0  0
 20 55  1  0  0  0  0
 21 22  1  0  0  0  0
 21 56  1  0  0  0  0
 21 57  1  0  0  0  0
 22 23  2  0  0  0  0
 22 24  2  0  0  0  0
 22 25  1  0  0  0  0
 25 58  1  0  0  0  0
 25 59  1  0  0  0  0
 25 60  1  0  0  0  0
 26 27  1  0  0  0  0
 26 61  1  0  0  0  0
 26 62  1  0  0  0  0
 27 28  1  0  0  0  0
 27 63  1  0  0  0  0
 27 64  1  0  0  0  0
 28 29  2  0  0  0  0
 28 30  2  0  0  0  0
 28 31  1  0  0  0  0
 31 65  1  0  0  0  0
 31 66  1  0  0  0  0
 31 67  1  0  0  0  0
 32 68  1  0  0  0  0
 32 69  1  0  0  0  0
 32 70  1  0  0  0  0
M  CHG  1   3   1
M  END
$$$$
