
  -OEChem-12102412493D

 66 70  0     1  0  0  0  0  0999 V2000
    1.8515   -0.2075  -14.7186 C   0  0  0  0  0  0  0  0  0  0  0  0
    1.5552    0.7066  -13.5282 C   0  0  0  0  0  0  0  0  0  0  0  0
    1.6400    0.0053  -12.2373 N   0  0  0  0  0  0  0  0  0  0  0  0
    2.9519   -0.0874  -11.5907 C   0  0  0  0  0  0  0  0  0  0  0  0
    3.2189    1.0396  -10.5856 C   0  0  0  0  0  0  0  0  0  0  0  0
    0.5149   -0.5888  -11.7575 C   0  0  0  0  0  0  0  0  0  0  0  0
   -0.5682   -0.6019  -12.3610 O   0  0  0  0  0  0  0  0  0  0  0  0
    0.6270   -1.2480  -10.5159 N   0  0  0  0  0  0  0  0  0  0  0  0
   -0.6231   -1.6489   -9.8853 C   0  0  2  0  0  0  0  0  0  0  0  0
   -1.3724   -0.8530  -10.0109 H   0  0  0  0  0  0  0  0  0  0  0  0
   -0.4345   -1.9307   -8.3954 C   0  0  0  0  0  0  0  0  0  0  0  0
   -1.7518   -2.4209   -7.7628 C   0  0  2  0  0  0  0  0  0  0  0  0
   -2.5050   -1.6314   -7.8988 H   0  0  0  0  0  0  0  0  0  0  0  0
   -1.6012   -2.7028   -6.2821 C   0  0  0  0  0  0  0  0  0  0  0  0
   -1.6453   -1.7686   -5.2504 C   0  0  0  0  0  0  0  0  0  0  0  0
   -1.4424   -2.1650   -3.9051 C   0  0  0  0  0  0  0  0  0  0  0  0
   -1.1989   -3.5048   -3.5660 C   0  0  0  0  0  0  0  0  0  0  0  0
   -1.1666   -4.4390   -4.6012 C   0  0  0  0  0  0  0  0  0  0  0  0
   -1.3596   -4.0305   -5.9378 C   0  0  0  0  0  0  0  0  0  0  0  0
   -1.2939   -5.1744   -6.7846 C   0  0  0  0  0  0  0  0  0  0  0  0
   -1.0640   -6.2666   -5.9714 C   0  0  0  0  0  0  0  0  0  0  0  0
   -0.9799   -5.8142   -4.6522 N   0  0  0  0  0  0  0  0  0  0  0  0
   -0.9039   -7.7158   -6.2979 C   0  0  0  0  0  0  0  0  0  0  0  0
   -1.4729   -4.9917   -8.2661 C   0  0  0  0  0  0  0  0  0  0  0  0
   -2.2891   -3.6928   -8.4780 C   0  0  2  0  0  0  0  0  0  0  0  0
   -3.3100   -3.8727   -8.1284 H   0  0  0  0  0  0  0  0  0  0  0  0
   -2.4388   -3.3588   -9.9677 N   0  3  1  0  0  0  0  0  0  0  0  0
   -3.0715   -2.5520  -10.0011 H   0  0  0  0  0  0  0  0  0  0  0  0
   -1.1492   -2.8936  -10.6075 C   0  0  0  0  0  0  0  0  0  0  0  0
   -3.0925   -4.4441  -10.7724 C   0  0  0  0  0  0  0  0  0  0  0  0
   -1.5149   -1.1125   -2.8241 C   0  0  0  0  0  0  0  0  0  0  0  0
   -2.9343   -1.4256   -1.6958 S   0  0  0  0  0  0  0  0  0  0  0  0
   -2.2001   -0.4790   -0.3186 C   0  0  0  0  0  0  0  0  0  0  0  0
   -0.7594   -0.9555   -0.1496 C   0  0  0  0  0  0  0  0  0  0  0  0
    0.0449   -1.0128   -1.8031 S   0  0  0  0  0  0  0  0  0  0  0  0
    1.8064    0.3625  -15.6521 H   0  0  0  0  0  0  0  0  0  0  0  0
    2.8492   -0.6532  -14.6451 H   0  0  0  0  0  0  0  0  0  0  0  0
    1.1133   -1.0122  -14.7716 H   0  0  0  0  0  0  0  0  0  0  0  0
    2.2641    1.5397  -13.4925 H   0  0  0  0  0  0  0  0  0  0  0  0
    0.5534    1.1282  -13.6158 H   0  0  0  0  0  0  0  0  0  0  0  0
    3.7055   -0.0567  -12.3824 H   0  0  0  0  0  0  0  0  0  0  0  0
    3.0576   -1.0697  -11.1203 H   0  0  0  0  0  0  0  0  0  0  0  0
    4.2231    0.9434  -10.1610 H   0  0  0  0  0  0  0  0  0  0  0  0
    3.1455    2.0174  -11.0704 H   0  0  0  0  0  0  0  0  0  0  0  0
    2.4994    1.0289   -9.7590 H   0  0  0  0  0  0  0  0  0  0  0  0
    1.3200   -0.8901   -9.8700 H   0  0  0  0  0  0  0  0  0  0  0  0
    0.3547   -2.6745   -8.2399 H   0  0  0  0  0  0  0  0  0  0  0  0
   -0.1212   -1.0184   -7.8783 H   0  0  0  0  0  0  0  0  0  0  0  0
   -1.8416   -0.7196   -5.4636 H   0  0  0  0  0  0  0  0  0  0  0  0
   -1.0446   -3.7768   -2.5264 H   0  0  0  0  0  0  0  0  0  0  0  0
   -0.8278   -6.4157   -3.8535 H   0  0  0  0  0  0  0  0  0  0  0  0
    0.1034   -8.0739   -6.0557 H   0  0  0  0  0  0  0  0  0  0  0  0
   -1.6186   -8.3344   -5.7434 H   0  0  0  0  0  0  0  0  0  0  0  0
   -1.0690   -7.8880   -7.3639 H   0  0  0  0  0  0  0  0  0  0  0  0
   -0.5024   -4.9207   -8.7709 H   0  0  0  0  0  0  0  0  0  0  0  0
   -2.0042   -5.8388   -8.7100 H   0  0  0  0  0  0  0  0  0  0  0  0
   -1.3629   -2.6549  -11.6490 H   0  0  0  0  0  0  0  0  0  0  0  0
   -0.4341   -3.7144  -10.5557 H   0  0  0  0  0  0  0  0  0  0  0  0
   -3.3571   -4.0375  -11.7488 H   0  0  0  0  0  0  0  0  0  0  0  0
   -2.3910   -5.2667  -10.8968 H   0  0  0  0  0  0  0  0  0  0  0  0
   -3.9868   -4.7863  -10.2505 H   0  0  0  0  0  0  0  0  0  0  0  0
   -1.6535   -0.1324   -3.2841 H   0  0  0  0  0  0  0  0  0  0  0  0
   -2.2395    0.5919   -0.5356 H   0  0  0  0  0  0  0  0  0  0  0  0
   -2.7950   -0.6794    0.5774 H   0  0  0  0  0  0  0  0  0  0  0  0
   -0.1874   -0.2621    0.4735 H   0  0  0  0  0  0  0  0  0  0  0  0
   -0.7320   -1.9492    0.3025 H   0  0  0  0  0  0  0  0  0  0  0  0
  1  2  1  0  0  0  0
  1 36  1  0  0  0  0
  1 37  1  0  0  0  0
  1 38  1  0  0  0  0
  2  3  1  0  0  0  0
  2 39  1  0  0  0  0
  2 40  1  0  0  0  0
  3  4  1  0  0  0  0
  3  6  1  0  0  0  0
  4  5  1  0  0  0  0
  4 41  1  0  0  0  0
  4 42  1  0  0  0  0
  5 43  1  0  0  0  0
  5 44  1  0  0  0  0
  5 45  1  0  0  0  0
  6  7  2  0  0  0  0
  6  8  1  0  0  0  0
  8  9  1  0  0  0  0
  8 46  1  0  0  0  0
  9 10  1  0  0  0  0
  9 11  1  0  0  0  0
  9 29  1  0  0  0  0
 11 12  1  0  0  0  0
 11 47  1  0  0  0  0
 11 48  1  0  0  0  0
 12 13  1  0  0  0  0
 12 14  1  0  0  0  0
 12 25  1  0  0  0  0
 14 15  1  0  0  0  0
 14 19  2  0  0  0  0
 15 16  2  0  0  0  0
 15 49  1  0  0  0  0
 16 17  1  0  0  0  0
 16 31  1  0  0  0  0
 17 18  2  0  0  0  0
 17 50  1  0  0  0  0
 18 19  1  0  0  0  0
 18 22  1  0  0  0  0
 19 20  1  0  0  0  0
 20 21  2  0  0  0  0
 20 24  1  0  0  0  0
 21 22  1  0  0  0  0
 21 23  1  0  0  0  0
 22 51  1  0  0  0  0
 23 52  1  0  0  0  0
 23 53  1  0  0  0  0
 23 54  1  0  0  0  0
 24 25  1  0  0  0  0
 24 55  1  0  0  0  0
 24 56  1  0  0  0  0
 25 26  1  0  0  0  0
 25 27  1  0  0  0  0
 27 28  1  0  0  0  0
 27 29  1  0  0  0  0
 27 30  1  0  0  0  0
 29 57  1  0  0  0  0
 29 58  1  0  0  0  0
 30 59  1  0  0  0  0
 30 60  1  0  0  0  0
 30 61  1  0  0  0  0
 31 32  1  0  0  0  0
 31 35  1  0  0  0  0
 31 62  1  0  0  0  0
 32 33  1  0  0  0  0
 33 34  1  0  0  0  0
 33 63  1  0  0  0  0
 33 64  1  0  0  0  0
 34 35  1  0  0  0  0
 34 65  1  0  0  0  0
 34 66  1  0  0  0  0
M  CHG  1  27   1
M  END
$$$$
