66
1 1 C24H35N4OS2
C                     1.851486605845    -0.207519907100   -14.718611086176
C                     1.555224172650     0.706599232562   -13.528159258425
N                     1.640007257268     0.005266927237   -12.237342754838
C                     2.951947033409    -0.087381413516   -11.590702448850
C                     3.218915496830     1.039580192883   -10.585633405028
C                     0.514894167410    -0.588793807214   -11.757536195684
O                    -0.568176152901    -0.601865272792   -12.361002293039
N                     0.626972953402    -1.247999272608   -10.515927457576
C                    -0.623097963317    -1.648877495010    -9.885314728066
H                    -1.372407924652    -0.852951863387   -10.010946504439
C                    -0.434548545917    -1.930747715686    -8.395448052641
C                    -1.751780543965    -2.420871949840    -7.762772357527
H                    -2.504957658271    -1.631425267645    -7.898799518572
C                    -1.601230675301    -2.702815048801    -6.282060601307
C                    -1.645286355581    -1.768550952954    -5.250407244910
C                    -1.442383091010    -2.165030405667    -3.905101051726
C                    -1.198929347210    -3.504807374347    -3.566022022566
C                    -1.166592777811    -4.439022172045    -4.601161598427
C                    -1.359614536407    -4.030475356928    -5.937778056215
C                    -1.293850461748    -5.174445650229    -6.784590638442
C                    -1.063952608219    -6.266605525777    -5.971354085644
N                    -0.979914594530    -5.814180463499    -4.652223738437
C                    -0.903900198547    -7.715805504074    -6.297891874208
C                    -1.472878234842    -4.991667540033    -8.266091598969
C                    -2.289074962623    -3.692819952050    -8.478036861621
H                    -3.310026392573    -3.872733663047    -8.128446277515
N                    -2.438845003999    -3.358801471013    -9.967728686312
H                    -3.071454345583    -2.551983610234   -10.001130923361
C                    -1.149196632646    -2.893620512695   -10.607490201864
C                    -3.092468634091    -4.444134695955   -10.772436214834
C                    -1.514932593371    -1.112509782067    -2.824087415687
S                    -2.934328062304    -1.425566162053    -1.695758568837
C                    -2.200123670827    -0.478986858363    -0.318639734027
C                    -0.759448329928    -0.955456113813    -0.149591967953
S                     0.044868522934    -1.012809361217    -1.803077993206
H                     1.806402220942     0.362481981263   -15.652117643679
H                     2.849243886436    -0.653161584302   -14.645094919929
H                     1.113279676699    -1.012170665491   -14.771557806154
H                     2.264146001031     1.539742664718   -13.492503551975
H                     0.553430688136     1.128217280419   -13.615782474175
H                     3.705513182924    -0.056698491150   -12.382372649016
H                     3.057590315422    -1.069714379649   -11.120253420272
H                     4.223148911627     0.943431450718   -10.161001221988
H                     3.145455730290     2.017400219345   -11.070354602274
H                     2.499414548156     1.028918266941    -9.759013833569
H                     1.319991826538    -0.890086852978    -9.870037059196
H                     0.354650338465    -2.674529383868    -8.239882192573
H                    -0.121203743185    -1.018380274302    -7.878287138774
H                    -1.841597188670    -0.719578584262    -5.463605345192
H                    -1.044578044092    -3.776848086000    -2.526381535231
H                    -0.827808092890    -6.415689425399    -3.853519238528
H                     0.103405508009    -8.073889324202    -6.055748426099
H                    -1.618611945294    -8.334406270742    -5.743394751115
H                    -1.068958857470    -7.888031921233    -7.363944717983
H                    -0.502365013221    -4.920675173365    -8.770868189159
H                    -2.004203058304    -5.838784314487    -8.710017180935
H                    -1.362945844534    -2.654894549222   -11.649043977030
H                    -0.434078610096    -3.714441243860   -10.555700485523
H                    -3.357146707417    -4.037469455079   -11.748808793455
H                    -2.391012607134    -5.266656287344   -10.896787223604
H                    -3.986813368617    -4.786322456017   -10.250483267943
H                    -1.653502821338    -0.132436751881    -3.284148981375
H                    -2.239493063565     0.591865749715    -0.535627875576
H                    -2.795007148838    -0.679399174676     0.577351075006
H                    -0.187373760266    -0.262062969511     0.473495978039
H                    -0.732006194636    -1.949203083123     0.302464215475
