
  -OEChem-12102412483D

 44 46  0     1  0  0  0  0  0999 V2000
   -3.5601   -0.3509   -4.4022 C   0  0  0  0  0  0  0  0  0  0  0  0
   -4.2180    0.8624   -4.6153 C   0  0  0  0  0  0  0  0  0  0  0  0
   -2.2705   -0.3261   -3.8690 C   0  0  0  0  0  0  0  0  0  0  0  0
   -3.5459    2.0432   -4.2851 C   0  0  0  0  0  0  0  0  0  0  0  0
   -1.6754    0.9074   -3.5659 C   0  0  0  0  0  0  0  0  0  0  0  0
   -0.6131    2.3297    0.6024 C   0  0  0  0  0  0  0  0  0  0  0  0
   -1.0939    1.0614    1.3200 C   0  0  0  0  0  0  0  0  0  0  0  0
   -1.0146   -1.5086    1.3006 C   0  0  0  0  0  0  0  0  0  0  0  0
   -0.8912    2.2470   -0.9003 C   0  0  0  0  0  0  0  0  0  0  0  0
    0.0358   -2.5603    0.9188 C   0  0  0  0  0  0  0  0  0  0  0  0
   -0.8189   -0.1695   -0.8331 C   0  0  0  0  0  0  0  0  0  0  0  0
    1.0209   -0.3112    0.8987 C   0  0  0  0  0  0  0  0  0  0  0  0
   -0.4997   -0.1970    0.6759 C   0  0  1  0  0  0  0  0  0  0  0  0
    2.3282   -2.1143   -1.6603 C   0  0  0  0  0  0  0  0  0  0  0  0
   -0.2972    0.9856   -2.9302 C   0  0  0  0  0  0  0  0  0  0  0  0
   -2.3082    2.0768   -3.7743 N   0  0  0  0  0  0  0  0  0  0  0  0
   -0.2845    1.0336   -1.4628 N   0  0  1  0  0  0  0  0  0  0  0  0
    1.2846   -1.7681    0.8886 N   0  0  2  0  0  0  0  0  0  0  0  0
    2.6399   -3.8073    0.3469 O   0  0  0  0  0  0  0  0  0  0  0  0
    3.7521   -1.4993    0.4695 O   0  0  0  0  0  0  0  0  0  0  0  0
    2.6233   -2.3608    0.1126 S   0  0  0  0  0  0  0  0  0  0  0  0
   -4.0393   -1.2950   -4.6494 H   0  0  0  0  0  0  0  0  0  0  0  0
   -5.2210    0.8991   -5.0308 H   0  0  0  0  0  0  0  0  0  0  0  0
   -1.7239   -1.2493   -3.6947 H   0  0  0  0  0  0  0  0  0  0  0  0
   -4.0234    3.0095   -4.4428 H   0  0  0  0  0  0  0  0  0  0  0  0
   -1.1156    3.2118    1.0146 H   0  0  0  0  0  0  0  0  0  0  0  0
    0.4623    2.4655    0.7639 H   0  0  0  0  0  0  0  0  0  0  0  0
   -0.8349    1.0956    2.3848 H   0  0  0  0  0  0  0  0  0  0  0  0
   -2.1893    1.0038    1.2605 H   0  0  0  0  0  0  0  0  0  0  0  0
   -2.0152   -1.7802    0.9505 H   0  0  0  0  0  0  0  0  0  0  0  0
   -1.0568   -1.4024    2.3900 H   0  0  0  0  0  0  0  0  0  0  0  0
   -1.9810    2.2712   -1.0737 H   0  0  0  0  0  0  0  0  0  0  0  0
   -0.4705    3.1134   -1.4187 H   0  0  0  0  0  0  0  0  0  0  0  0
    0.1210   -3.3722    1.6428 H   0  0  0  0  0  0  0  0  0  0  0  0
   -0.1858   -3.0077   -0.0590 H   0  0  0  0  0  0  0  0  0  0  0  0
   -0.3779   -1.0400   -1.3302 H   0  0  0  0  0  0  0  0  0  0  0  0
   -1.9147   -0.2544   -0.9557 H   0  0  0  0  0  0  0  0  0  0  0  0
    1.5851    0.2112    0.1243 H   0  0  0  0  0  0  0  0  0  0  0  0
    1.3165    0.1036    1.8683 H   0  0  0  0  0  0  0  0  0  0  0  0
    3.2137   -2.4816   -2.1825 H   0  0  0  0  0  0  0  0  0  0  0  0
    1.4516   -2.6919   -1.9582 H   0  0  0  0  0  0  0  0  0  0  0  0
    2.1909   -1.0492   -1.8518 H   0  0  0  0  0  0  0  0  0  0  0  0
    0.2981    0.1186   -3.2394 H   0  0  0  0  0  0  0  0  0  0  0  0
    0.2016    1.8863   -3.2989 H   0  0  0  0  0  0  0  0  0  0  0  0
  1  2  1  0  0  0  0
  1  3  2  0  0  0  0
  1 22  1  0  0  0  0
  2  4  2  0  0  0  0
  2 23  1  0  0  0  0
  3  5  1  0  0  0  0
  3 24  1  0  0  0  0
  4 16  1  0  0  0  0
  4 25  1  0  0  0  0
  5 15  1  0  0  0  0
  5 16  2  0  0  0  0
  6  7  1  0  0  0  0
  6  9  1  0  0  0  0
  6 26  1  0  0  0  0
  6 27  1  0  0  0  0
  7 13  1  0  0  0  0
  7 28  1  0  0  0  0
  7 29  1  0  0  0  0
  8 10  1  0  0  0  0
  8 13  1  0  0  0  0
  8 30  1  0  0  0  0
  8 31  1  0  0  0  0
  9 17  1  0  0  0  0
  9 32  1  0  0  0  0
  9 33  1  0  0  0  0
 10 18  1  0  0  0  0
 10 34  1  0  0  0  0
 10 35  1  0  0  0  0
 11 13  1  0  0  0  0
 11 17  1  0  0  0  0
 11 36  1  0  0  0  0
 11 37  1  0  0  0  0
 12 13  1  0  0  0  0
 12 18  1  0  0  0  0
 12 38  1  0  0  0  0
 12 39  1  0  0  0  0
 14 21  1  0  0  0  0
 14 40  1  0  0  0  0
 14 41  1  0  0  0  0
 14 42  1  0  0  0  0
 15 17  1  0  0  0  0
 15 43  1  0  0  0  0
 15 44  1  0  0  0  0
 18 21  1  0  0  0  0
 19 21  2  0  0  0  0
 20 21  2  0  0  0  0
M  END
$$$$
