10   
torsion grid (-165,)
C        3.0787259270    0.3064920067   -0.6174422208
C       -0.1916769998   -0.6400873285   -0.2199531891
C        0.5999033100    0.6252938700    0.0682895243
N        1.9542379921    0.4676887166   -0.2982865458
N       -1.6892439949   -0.5071125692    0.2594121854
O       -2.3346080309   -1.5376445798    0.3389282560
O        0.1596634660   -1.6517594218   -0.7263662590
O       -2.0652093361    0.6401091689    0.5157703074
H        0.5087178614    0.8636556089    1.1333594452
H        0.1426370443    1.4589877386   -0.4736326231
10   
torsion grid (-150,)
C        3.0804343846    0.2943189124   -0.5977432870
C       -0.2072571442   -0.6222642508   -0.2648737952
C        0.6020936650    0.6164624370    0.0857236718
N        1.9563550208    0.4581686275   -0.2780753505
N       -1.6820283666   -0.5041330083    0.2570358355
O       -2.2480320210   -1.5422347137    0.5564631014
O        0.1249481250   -1.6022397043   -0.8437523725
O       -2.1284732581    0.6444497213    0.3236972773
H        0.5067212597    0.8033132241    1.1613301674
H        0.1583855738    1.4797819651   -0.4197263677
10   
torsion grid (-135,)
C        3.0753125644    0.3034895418   -0.6123841069
C       -0.2179751006   -0.6115783291   -0.2948224443
C        0.6071964393    0.5980079307    0.1161107397
N        1.9559993536    0.4551562983   -0.2701672565
N       -1.6778575732   -0.4921330086    0.2424359471
O       -2.1632585195   -1.4872822535    0.7573828344
O        0.0971214812   -1.5647663395   -0.9275734822
O       -2.1997212934    0.6163441876    0.0995064892
H        0.5246404308    0.7175327603    1.2031438202
H        0.1616894566    1.4908524222   -0.3335536600
10   
torsion grid (-120,)
C        3.0684972490    0.3145203217   -0.6311733927
C       -0.2282099478   -0.5992216886   -0.3195483928
C        0.6133912222    0.5774498022    0.1492904808
N        1.9556657630    0.4533767190   -0.2628417935
N       -1.6748522344   -0.4791561724    0.2243894790
O       -2.0792245364   -1.3851441791    0.9393150290
O        0.0715191573   -1.5239234493   -1.0024565822
O       -2.2756924824    0.5411048537   -0.1168515743
H        0.5466265032    0.6301705941    1.2430319449
H        0.1654265454    1.4964464089   -0.2430763178
10   
torsion grid (-105,)
C        3.0611829380    0.3320270560   -0.6510297111
C       -0.2359760152   -0.5860132444   -0.3420527111
C        0.6204214505    0.5546536210    0.1838430670
N        1.9552260049    0.4548691057   -0.2568701704
N       -1.6756892581   -0.4635798808    0.2005848492
O       -1.9989464183   -1.2395807389    1.0916840348
O        0.0522787540   -1.4843311311   -1.0655560057
O       -2.3560641584    0.4225034993   -0.3147699937
H        0.5713973416    0.5376454764    1.2796552578
H        0.1693166001    1.4974294472   -0.1454097364
10   
torsion grid (-90,)
C        3.0516703770    0.3548506212   -0.6809242133
C       -0.2425936389   -0.5703394553   -0.3613598479
C        0.6307706659    0.5287817297    0.2203934162
N        1.9550602975    0.4555627004   -0.2555327520
N       -1.6819975204   -0.4421110822    0.1731284652
O       -1.9277935580   -1.0516650137    1.2099556685
O        0.0350036050   -1.4454217330   -1.1174139540
O       -2.4393463332    0.2646801423   -0.4856352625
H        0.6046860079    0.4374117766    1.3129656118
H        0.1776873361    1.4938735242   -0.0354982516
10   
torsion grid (-75,)
C        3.0515860182    0.3563801126   -0.6864279290
C       -0.2512480161   -0.5451199250   -0.3886770571
C        0.6415324620    0.5075489914    0.2478811071
N        1.9600808679    0.4466805502   -0.2459018154
N       -1.6906741634   -0.4255355531    0.1544475415
O       -1.8564140138   -0.8486836552    1.2977041153
O        0.0122337625   -1.3848148940   -1.1881517606
O       -2.5250681178    0.0702129677   -0.5931696861
H        0.6231467946    0.3579250856    1.3332856318
H        0.1979716450    1.4910295302    0.0490887329
10   
torsion grid (-60,)
C        3.0446956850    0.3836774517   -0.7093593621
C       -0.2548113458   -0.5255189295   -0.4087894627
C        0.6537426709    0.4799830280    0.2806283459
N        1.9612332728    0.4459789598   -0.2450693670
N       -1.7030115764   -0.4073527420    0.1305813612
O       -1.8225854575   -0.6103431264    1.3402531364
O       -0.0017315464   -1.3316832890   -1.2439203580
O       -2.5831144688   -0.1460042009   -0.6769600324
H        0.6559862887    0.2597180973    1.3533562638
H        0.2127437169    1.4771679613    0.1593583553
10   
torsion grid (-45,)
C        3.0404974065    0.3948052524   -0.7253645932
C       -0.2586992836   -0.5015463255   -0.4291516090
C        0.6660384743    0.4547379465    0.3077178886
N        1.9647518854    0.4402110503   -0.2419317754
N       -1.7162860258   -0.3943624335    0.1148557751
O       -1.8124722692   -0.3684853457    1.3445740355
O       -0.0174419834   -1.2650405785   -1.3051094007
O       -2.6196900655   -0.3702572798   -0.7060992595
H        0.6836275029    0.1746614420    1.3655904371
H        0.2328215978    1.4608994822    0.2549973821
10   
torsion grid (-30,)
C        3.0358734174    0.4141974612   -0.7402817370
C       -0.2620441561   -0.4778246321   -0.4480440704
C        0.6773292680    0.4281193548    0.3323095091
N        1.9674955978    0.4356584608   -0.2395710066
N       -1.7292778681   -0.3843387182    0.1016492992
O       -1.8253125244   -0.1294824868    1.3054230288
O       -0.0323566794   -1.1972432378   -1.3619265972
O       -2.6327028456   -0.5887803408   -0.6915316437
H        0.7110781984    0.0869070115    1.3715362546
H        0.2530648312    1.4384103377    0.3505158436
10   
torsion grid (-15,)
C        3.0438830006    0.4026753623   -0.7258999627
C       -0.2696413748   -0.4386268601   -0.4779796227
C        0.6835876019    0.4134008454    0.3443140578
N        1.9749472188    0.4196997928   -0.2264971339
N       -1.7366232897   -0.3882951357    0.1014255014
O       -1.8404393085    0.0632667370    1.2453707985
O       -0.0571094978   -1.0941055944   -1.4415838388
O       -2.6266178176   -0.8080741797   -0.6171279346
H        0.7103740308    0.0259802195    1.3675419924
H        0.2807866754    1.4297020231    0.4105150231
10   
torsion grid (0,)
C        3.0538353260    0.3741033172   -0.7049863833
C       -0.2805273289   -0.3931444200   -0.5085502978
C        0.6872951023    0.4028515602    0.3516691239
N        1.9824842818    0.3970672714   -0.2111157992
N       -1.7378165911   -0.3980144656    0.1066576656
O       -1.8717089228    0.2261738524    1.1628948933
O       -0.0873833324   -0.9748284679   -1.5218389366
O       -2.5914431053   -1.0109561487   -0.5093884530
H        0.6976758624   -0.0232169405    1.3600283896
H        0.3107359471    1.4255876519    0.4547086781
10   
torsion grid (15,)
C        3.0599914654    0.3423498018   -0.6881997102
C       -0.2942581605   -0.3464319919   -0.5355926509
C        0.6895258698    0.3911620845    0.3582126469
N        1.9875337986    0.3725648476   -0.1970394487
N       -1.7320300902   -0.4055023797    0.1121755597
O       -1.9219095150    0.3683750572    1.0547021741
O       -0.1219322173   -0.8513301904   -1.5932962078
O       -2.5245212455   -1.1904386765   -0.3781882299
H        0.6821748116   -0.0735513875    1.3499215926
H        0.3385725223    1.4184260452    0.4973831547
10   
torsion grid (30,)
C        3.0602546201    0.3228911086   -0.6832185702
C       -0.3085548926   -0.3036332960   -0.5568990811
C        0.6919951442    0.3731917595    0.3666356700
N        1.9896228432    0.3527911049   -0.1877826751
N       -1.7240061406   -0.4040825402    0.1139845926
O       -1.9923834819    0.4962116129    0.9144155075
O       -0.1554555087   -0.7362139575   -1.6500300768
O       -2.4329141364   -1.3370101464   -0.2239572876
H        0.6740370900   -0.1381871559    1.3357532483
H        0.3605517018    1.3996647205    0.5511775529
10   
torsion grid (45,)
C        3.0539377513    0.3444683512   -0.6939078497
C       -0.3185157022   -0.2775242089   -0.5691459390
C        0.6971441378    0.3382427159    0.3805184692
N        1.9893482771    0.3480964633   -0.1843654709
N       -1.7189581882   -0.3843549694    0.1086001334
O       -2.0770458039    0.6223673492    0.7253755305
O       -0.1797355382   -0.6572256081   -1.6849404741
O       -2.3380137111   -1.4251643478   -0.0468773437
H        0.6857920885   -0.2355280806    1.3151176449
H        0.3691939280    1.3522455455    0.6297041799
10   
torsion grid (60,)
C        3.0500059975    0.3637924728   -0.6969291874
C       -0.3284128806   -0.2498706876   -0.5810459032
C        0.7014553339    0.3012923051    0.3922946394
N        1.9889975020    0.3419962587   -0.1800896985
N       -1.7153150013   -0.3612753048    0.1017860004
O       -2.1735401000    0.7040261753    0.5188845588
O       -0.2038718308   -0.5746395339   -1.7170073803
O       -2.2297376447   -1.4694470275    0.1500761408
H        0.6954469429   -0.3306230413    1.2890727310
H        0.3781189202    1.3003715937    0.7030369795
10   
torsion grid (75,)
C        3.0410232670    0.3959314902   -0.7111525166
C       -0.3369497246   -0.2241533785   -0.5892526823
C        0.7079812638    0.2586908403    0.4033980748
N        1.9884031433    0.3406125377   -0.1796155885
N       -1.7162719462   -0.3296678866    0.0945379923
O       -2.2814275865    0.7430373469    0.3030141939
O       -0.2234110616   -0.5022921534   -1.7396516756
O       -2.1174912410   -1.4562055883    0.3607097267
H        0.7123534156   -0.4353944648    1.2529420510
H        0.3889377093    1.2350644669    0.7851493048
10   
torsion grid (90,)
C        3.0392757455    0.4012759049   -0.7099262604
C       -0.3445871227   -0.1883590276   -0.6000666290
C        0.7123032521    0.2234288103    0.4112110198
N        1.9893195169    0.3272510233   -0.1753548962
N       -1.7187632131   -0.3044176026    0.0870826552
O       -2.3999579705    0.7166793324    0.1048887147
O       -0.2411475737   -0.4111951915   -1.7637208473
O       -1.9936506124   -1.4045344273    0.5574872266
H        0.7143911317   -0.5161811884    1.2206180491
H        0.4059640854    1.1816755768    0.8478598481
10   
torsion grid (105,)
C        3.0327062295    0.4386800592   -0.7176755086
C       -0.3487477495   -0.1636633441   -0.6059884433
C        0.7207572547    0.1788766322    0.4186720515
N        1.9895207451    0.3264281403   -0.1766058326
N       -1.7271822666   -0.2707281758    0.0800692224
O       -2.5058172725    0.6587556455   -0.0946238304
O       -0.2516064955   -0.3462276750   -1.7767816385
O       -1.8998480497   -1.2861171638    0.7529853310
H        0.7332260340   -0.6145170769    1.1743837971
H        0.4201388097    1.1041361687    0.9256437320
10   
torsion grid (120,)
C        3.0283935442    0.4647148130   -0.7250521705
C       -0.3517028005   -0.1367158238   -0.6085758235
C        0.7306257944    0.1383856176    0.4236752647
N        1.9907334563    0.3220447752   -0.1807636078
N       -1.7375520382   -0.2443365975    0.0776444719
O       -2.5966619725    0.5527395113   -0.2717116579
O       -0.2631114216   -0.2706634677   -1.7856417229
O       -1.8291682141   -1.1312049462    0.9282078950
H        0.7516520819   -0.6990648706    1.1289507724
H        0.4399388092    1.0297241991    0.9933454591
10   
torsion grid (135,)
C        3.0262269660    0.4873211784   -0.7272860380
C       -0.3526232188   -0.1072881687   -0.6099629533
C        0.7401186948    0.1001852172    0.4272171825
N        1.9933589035    0.3152410213   -0.1827225367
N       -1.7491251205   -0.2252215495    0.0756353726
O       -2.6682740799    0.4041004707   -0.4245899095
O       -0.2720163219   -0.1822571604   -1.7915337035
O       -1.7825201370   -0.9461585985    1.0759487422
H        0.7668844078   -0.7757267752    1.0828906879
H        0.4611171452    0.9554275751    1.0544820362
10   
torsion grid (150,)
C        3.0241440855    0.5051414082   -0.7294795735
C       -0.3536880797   -0.0738451536   -0.6075980903
C        0.7491946241    0.0655287780    0.4300126268
N        1.9965912844    0.3074669118   -0.1839075220
N       -1.7606069075   -0.2098320129    0.0731227964
O       -2.7189780470    0.2215976791   -0.5457997665
O       -0.2797213160   -0.0866526794   -1.7908890297
O       -1.7591483773   -0.7387739331    1.1881193655
H        0.7795208976   -0.8465488966    1.0340588469
H        0.4858390751    0.8815411089    1.1124392270
10   
torsion grid (165,)
C        3.0618104838    0.3285296864   -0.6862525405
C       -0.1649741875   -0.6748925247   -0.1113232805
C        0.5939004977    0.6331207810    0.0438624417
N        1.9411066299    0.4848028288   -0.3517090081
N       -1.6915435817   -0.5041144860    0.2500641539
O       -2.4430398942   -1.3963101264   -0.1021492347
O        0.2268946082   -1.7393937590   -0.4528648778
O       -1.9814186126    0.5308937768    0.8566259386
H        0.5261536489    0.9591014962    1.0864385419
H        0.0942576467    1.4038855372   -0.5526132541
10   
torsion grid (180,)
C        3.0720548072    0.3197553497   -0.6509220404
C       -0.1766313011   -0.6584024428   -0.1665487507
C        0.5978556685    0.6303315793    0.0559690353
N        1.9490714142    0.4775615183   -0.3249840535
N       -1.6937100153   -0.5065605966    0.2554721070
O       -2.4027792837   -1.4871683639    0.1156280474
O        0.1953936431   -1.6991620456   -0.5917276990
O       -2.0168666025    0.6023020635    0.6903146889
H        0.5189146250    0.9132645566    1.1105608623
H        0.1198442837    1.4337015919   -0.5136833168
