
  -OEChem-12102412493D

 30 31  0     1  0  0  0  0  0999 V2000
    4.4232    4.4917    3.0159 C   0  0  0  0  0  0  0  0  0  0  0  0
    3.6400    3.3213    2.7569 O   0  0  0  0  0  0  0  0  0  0  0  0
    2.6646    3.3937    1.8159 C   0  0  0  0  0  0  0  0  0  0  0  0
    2.3563    4.5419    1.0700 C   0  0  0  0  0  0  0  0  0  0  0  0
    1.3253    4.4850    0.1294 C   0  0  0  0  0  0  0  0  0  0  0  0
    0.5964    3.3167   -0.0826 C   0  0  0  0  0  0  0  0  0  0  0  0
    0.9138    2.1760    0.6743 C   0  0  0  0  0  0  0  0  0  0  0  0
    1.9409    2.2058    1.6188 C   0  0  0  0  0  0  0  0  0  0  0  0
    0.1584    0.9784    0.4615 N   0  0  0  0  0  0  0  0  0  0  0  0
   -1.1194    0.9923   -0.2816 C   0  0  0  0  0  0  0  0  0  0  0  0
   -1.7721   -0.3679    0.0544 C   0  0  0  0  0  0  0  0  0  0  0  0
   -0.5427   -1.2366    0.2667 C   0  0  1  0  0  0  0  0  0  0  0  0
   -0.1598   -1.6732   -0.6599 H   0  0  0  0  0  0  0  0  0  0  0  0
    0.5023   -0.2688    0.8449 C   0  0  0  0  0  0  0  0  0  0  0  0
    1.4195   -0.6957    1.5491 O   0  0  0  0  0  0  0  0  0  0  0  0
   -0.6166   -2.3613    1.2698 N   0  3  0  0  0  0  0  0  0  0  0  0
    5.1309    4.2047    3.7930 H   0  0  0  0  0  0  0  0  0  0  0  0
    3.7956    5.3137    3.3779 H   0  0  0  0  0  0  0  0  0  0  0  0
    4.9707    4.8053    2.1202 H   0  0  0  0  0  0  0  0  0  0  0  0
    2.9029    5.4668    1.2088 H   0  0  0  0  0  0  0  0  0  0  0  0
    1.0893    5.3704   -0.4536 H   0  0  0  0  0  0  0  0  0  0  0  0
   -0.1842    3.3042   -0.8343 H   0  0  0  0  0  0  0  0  0  0  0  0
    2.2059    1.3362    2.2046 H   0  0  0  0  0  0  0  0  0  0  0  0
   -1.7329    1.8304    0.0509 H   0  0  0  0  0  0  0  0  0  0  0  0
   -0.9372    1.0963   -1.3558 H   0  0  0  0  0  0  0  0  0  0  0  0
   -2.3439   -0.2758    0.9846 H   0  0  0  0  0  0  0  0  0  0  0  0
   -2.4401   -0.7166   -0.7345 H   0  0  0  0  0  0  0  0  0  0  0  0
   -1.2821   -2.1612    2.0264 H   0  0  0  0  0  0  0  0  0  0  0  0
    0.3403   -2.3934    1.6943 H   0  0  0  0  0  0  0  0  0  0  0  0
   -0.8558   -3.2711    0.8618 H   0  0  0  0  0  0  0  0  0  0  0  0
  1  2  1  0  0  0  0
  1 17  1  0  0  0  0
  1 18  1  0  0  0  0
  1 19  1  0  0  0  0
  2  3  1  0  0  0  0
  3  4  1  0  0  0  0
  3  8  2  0  0  0  0
  4  5  2  0  0  0  0
  4 20  1  0  0  0  0
  5  6  1  0  0  0  0
  5 21  1  0  0  0  0
  6  7  2  0  0  0  0
  6 22  1  0  0  0  0
  7  8  1  0  0  0  0
  7  9  1  0  0  0  0
  8 23  1  0  0  0  0
  9 10  1  0  0  0  0
  9 14  1  0  0  0  0
 10 11  1  0  0  0  0
 10 24  1  0  0  0  0
 10 25  1  0  0  0  0
 11 12  1  0  0  0  0
 11 26  1  0  0  0  0
 11 27  1  0  0  0  0
 12 13  1  0  0  0  0
 12 14  1  0  0  0  0
 12 16  1  0  0  0  0
 14 15  2  0  0  0  0
 16 28  1  0  0  0  0
 16 29  1  0  0  0  0
 16 30  1  0  0  0  0
M  CHG  1  16   1
M  END
$$$$
