
  -OEChem-12122420533D

 30 31  0     1  0  0  0  0  0999 V2000
    3.1595   -3.3005    3.8387 C   0  0  0  0  0  0  0  0  0  0  0  0
    2.2610   -2.6097    4.7059 O   0  0  0  0  0  0  0  0  0  0  0  0
    1.3192   -1.7972    4.1607 C   0  0  0  0  0  0  0  0  0  0  0  0
    0.4590   -1.1581    5.0702 C   0  0  0  0  0  0  0  0  0  0  0  0
   -0.5387   -0.3158    4.5976 C   0  0  0  0  0  0  0  0  0  0  0  0
   -0.7093   -0.0792    3.2277 C   0  0  0  0  0  0  0  0  0  0  0  0
    0.1537   -0.7161    2.3320 C   0  0  0  0  0  0  0  0  0  0  0  0
    1.1688   -1.5781    2.7849 C   0  0  0  0  0  0  0  0  0  0  0  0
    0.0336   -0.5017    0.9205 N   0  0  0  0  0  0  0  0  0  0  0  0
    1.1220   -0.8497   -0.0163 C   0  0  0  0  0  0  0  0  0  0  0  0
    0.7573   -0.1054   -1.3210 C   0  0  0  0  0  0  0  0  0  0  0  0
   -0.7604   -0.0923   -1.2336 C   0  0  1  0  0  0  0  0  0  0  0  0
   -1.2225   -0.9939   -1.6452 H   0  0  0  0  0  0  0  0  0  0  0  0
   -1.0466   -0.0139    0.2746 C   0  0  0  0  0  0  0  0  0  0  0  0
   -2.1053    0.4697    0.6802 O   0  0  0  0  0  0  0  0  0  0  0  0
   -1.5079    1.0776   -1.8249 N   0  3  0  0  0  0  0  0  0  0  0  0
    3.8110   -3.8823    4.4901 H   0  0  0  0  0  0  0  0  0  0  0  0
    3.7659   -2.5976    3.2542 H   0  0  0  0  0  0  0  0  0  0  0  0
    2.6193   -3.9788    3.1670 H   0  0  0  0  0  0  0  0  0  0  0  0
    0.5938   -1.3420    6.1314 H   0  0  0  0  0  0  0  0  0  0  0  0
   -1.2024    0.1744    5.3036 H   0  0  0  0  0  0  0  0  0  0  0  0
   -1.4947    0.5752    2.8766 H   0  0  0  0  0  0  0  0  0  0  0  0
    1.8166   -2.0858    2.0829 H   0  0  0  0  0  0  0  0  0  0  0  0
    2.0792   -0.5174    0.3876 H   0  0  0  0  0  0  0  0  0  0  0  0
    1.1640   -1.9325   -0.1724 H   0  0  0  0  0  0  0  0  0  0  0  0
    1.1546    0.9148   -1.2792 H   0  0  0  0  0  0  0  0  0  0  0  0
    1.1540   -0.5998   -2.2090 H   0  0  0  0  0  0  0  0  0  0  0  0
   -0.9521    1.9413   -1.8056 H   0  0  0  0  0  0  0  0  0  0  0  0
   -2.3236    1.2154   -1.1827 H   0  0  0  0  0  0  0  0  0  0  0  0
   -1.8330    0.9244   -2.7853 H   0  0  0  0  0  0  0  0  0  0  0  0
  1  2  1  0  0  0  0
  1 17  1  0  0  0  0
  1 18  1  0  0  0  0
  1 19  1  0  0  0  0
  2  3  1  0  0  0  0
  3  4  1  0  0  0  0
  3  8  2  0  0  0  0
  4  5  2  0  0  0  0
  4 20  1  0  0  0  0
  5  6  1  0  0  0  0
  5 21  1  0  0  0  0
  6  7  2  0  0  0  0
  6 22  1  0  0  0  0
  7  8  1  0  0  0  0
  7  9  1  0  0  0  0
  8 23  1  0  0  0  0
  9 10  1  0  0  0  0
  9 14  1  0  0  0  0
 10 11  1  0  0  0  0
 10 24  1  0  0  0  0
 10 25  1  0  0  0  0
 11 12  1  0  0  0  0
 11 26  1  0  0  0  0
 11 27  1  0  0  0  0
 12 13  1  0  0  0  0
 12 14  1  0  0  0  0
 12 16  1  0  0  0  0
 14 15  2  0  0  0  0
 16 28  1  0  0  0  0
 16 29  1  0  0  0  0
 16 30  1  0  0  0  0
M  CHG  1  16   1
M  END
$$$$
