
  -OEChem-12102412493D

 56 60  0     0  0  0  0  0  0999 V2000
   -0.5126   -5.8548   -0.0498 C   0  0  0  0  0  0  0  0  0  0  0  0
   -0.8289   -6.2677    1.2700 O   0  0  0  0  0  0  0  0  0  0  0  0
   -1.7389   -5.5026    1.9743 C   0  0  0  0  0  0  0  0  0  0  0  0
   -1.9977   -5.9129    3.2878 C   0  0  0  0  0  0  0  0  0  0  0  0
   -2.9059   -5.1915    4.0657 C   0  0  0  0  0  0  0  0  0  0  0  0
   -3.5599   -4.0649    3.5576 C   0  0  0  0  0  0  0  0  0  0  0  0
   -3.2932   -3.6552    2.2467 C   0  0  0  0  0  0  0  0  0  0  0  0
   -2.3868   -4.3750    1.4545 C   0  0  0  0  0  0  0  0  0  0  0  0
   -3.9953   -2.4328    1.6809 C   0  0  0  0  0  0  0  0  0  0  0  0
   -3.7221   -1.2172    2.4336 N   0  0  0  0  0  0  0  0  0  0  0  0
   -2.5013   -0.5696    2.4433 C   0  0  0  0  0  0  0  0  0  0  0  0
   -1.3121   -0.8785    1.7748 C   0  0  0  0  0  0  0  0  0  0  0  0
   -0.2284   -0.0099    1.9298 C   0  0  0  0  0  0  0  0  0  0  0  0
   -0.3419    1.1479    2.7269 C   0  0  0  0  0  0  0  0  0  0  0  0
   -1.5303    1.4491    3.3950 C   0  0  0  0  0  0  0  0  0  0  0  0
   -2.6340    0.5833    3.2739 C   0  0  0  0  0  0  0  0  0  0  0  0
   -3.9958    0.5981    3.7648 C   0  0  0  0  0  0  0  0  0  0  0  0
   -4.6329   -0.5150    3.2212 C   0  0  0  0  0  0  0  0  0  0  0  0
   -6.0560   -1.0621    3.3911 C   0  0  0  0  0  0  0  0  0  0  0  0
   -6.9861   -0.3069    3.0107 O   0  0  0  0  0  0  0  0  0  0  0  0
   -6.1124   -2.2323    3.8618 O   0  5  0  0  0  0  0  0  0  0  0  0
   -4.5571    1.5970    4.6895 C   0  0  0  0  0  0  0  0  0  0  0  0
   -3.7665    2.1398    5.7253 C   0  0  0  0  0  0  0  0  0  0  0  0
   -4.2637    3.1025    6.6009 C   0  0  0  0  0  0  0  0  0  0  0  0
   -5.5842    3.5513    6.4735 C   0  0  0  0  0  0  0  0  0  0  0  0
   -6.3940    3.0168    5.4642 C   0  0  0  0  0  0  0  0  0  0  0  0
   -5.8816    2.0560    4.5850 C   0  0  0  0  0  0  0  0  0  0  0  0
   -5.9934    4.5045    7.3902 O   0  0  0  0  0  0  0  0  0  0  0  0
   -7.3335    4.9735    7.2918 C   0  0  0  0  0  0  0  0  0  0  0  0
   -7.5566    5.9955    8.3743 C   0  0  0  0  0  0  0  0  0  0  0  0
   -8.9560    6.1981    8.9154 C   0  0  0  0  0  0  0  0  0  0  0  0
   -7.8945    5.5372    9.7727 C   0  0  0  0  0  0  0  0  0  0  0  0
    0.2258   -6.5689   -0.4213 H   0  0  0  0  0  0  0  0  0  0  0  0
   -0.0790   -4.8460   -0.0655 H   0  0  0  0  0  0  0  0  0  0  0  0
   -1.3945   -5.8753   -0.7042 H   0  0  0  0  0  0  0  0  0  0  0  0
   -1.4824   -6.7878    3.6753 H   0  0  0  0  0  0  0  0  0  0  0  0
   -3.1093   -5.5182    5.0831 H   0  0  0  0  0  0  0  0  0  0  0  0
   -4.2916   -3.5050    4.1363 H   0  0  0  0  0  0  0  0  0  0  0  0
   -2.1953   -4.0388    0.4400 H   0  0  0  0  0  0  0  0  0  0  0  0
   -3.6906   -2.2757    0.6385 H   0  0  0  0  0  0  0  0  0  0  0  0
   -5.0734   -2.5932    1.7029 H   0  0  0  0  0  0  0  0  0  0  0  0
   -1.2228   -1.7733    1.1665 H   0  0  0  0  0  0  0  0  0  0  0  0
    0.7119   -0.2312    1.4293 H   0  0  0  0  0  0  0  0  0  0  0  0
    0.5105    1.8180    2.8200 H   0  0  0  0  0  0  0  0  0  0  0  0
   -1.6050    2.3572    3.9864 H   0  0  0  0  0  0  0  0  0  0  0  0
   -2.7531    1.7761    5.8674 H   0  0  0  0  0  0  0  0  0  0  0  0
   -3.6475    3.5062    7.4004 H   0  0  0  0  0  0  0  0  0  0  0  0
   -7.4256    3.3310    5.3445 H   0  0  0  0  0  0  0  0  0  0  0  0
   -6.5186    1.6265    3.8173 H   0  0  0  0  0  0  0  0  0  0  0  0
   -7.5054    5.4198    6.3014 H   0  0  0  0  0  0  0  0  0  0  0  0
   -8.0395    4.1381    7.4094 H   0  0  0  0  0  0  0  0  0  0  0  0
   -6.9323    6.8822    8.2923 H   0  0  0  0  0  0  0  0  0  0  0  0
   -9.2670    7.2086    9.1653 H   0  0  0  0  0  0  0  0  0  0  0  0
   -9.7499    5.5710    8.5177 H   0  0  0  0  0  0  0  0  0  0  0  0
   -7.9687    4.4664    9.9401 H   0  0  0  0  0  0  0  0  0  0  0  0
   -7.4860    6.0974   10.6089 H   0  0  0  0  0  0  0  0  0  0  0  0
  1  2  1  0  0  0  0
  1 33  1  0  0  0  0
  1 34  1  0  0  0  0
  1 35  1  0  0  0  0
  2  3  1  0  0  0  0
  3  4  2  0  0  0  0
  3  8  1  0  0  0  0
  4  5  1  0  0  0  0
  4 36  1  0  0  0  0
  5  6  2  0  0  0  0
  5 37  1  0  0  0  0
  6  7  1  0  0  0  0
  6 38  1  0  0  0  0
  7  8  2  0  0  0  0
  7  9  1  0  0  0  0
  8 39  1  0  0  0  0
  9 10  1  0  0  0  0
  9 40  1  0  0  0  0
  9 41  1  0  0  0  0
 10 11  1  0  0  0  0
 10 18  1  0  0  0  0
 11 12  1  0  0  0  0
 11 16  2  0  0  0  0
 12 13  2  0  0  0  0
 12 42  1  0  0  0  0
 13 14  1  0  0  0  0
 13 43  1  0  0  0  0
 14 15  2  0  0  0  0
 14 44  1  0  0  0  0
 15 16  1  0  0  0  0
 15 45  1  0  0  0  0
 16 17  1  0  0  0  0
 17 18  2  0  0  0  0
 17 22  1  0  0  0  0
 18 19  1  0  0  0  0
 19 20  2  0  0  0  0
 19 21  1  0  0  0  0
 22 23  1  0  0  0  0
 22 27  2  0  0  0  0
 23 24  2  0  0  0  0
 23 46  1  0  0  0  0
 24 25  1  0  0  0  0
 24 47  1  0  0  0  0
 25 26  2  0  0  0  0
 25 28  1  0  0  0  0
 26 27  1  0  0  0  0
 26 48  1  0  0  0  0
 27 49  1  0  0  0  0
 28 29  1  0  0  0  0
 29 30  1  0  0  0  0
 29 50  1  0  0  0  0
 29 51  1  0  0  0  0
 30 31  1  0  0  0  0
 30 32  1  0  0  0  0
 30 52  1  0  0  0  0
 31 32  1  0  0  0  0
 31 53  1  0  0  0  0
 31 54  1  0  0  0  0
 32 55  1  0  0  0  0
 32 56  1  0  0  0  0
M  CHG  1  21  -1
M  END
$$$$
