33   
torsion grid (-60,)
C       -7.2916702764    0.9770326275   -1.9972677645
C       -7.5528790586    3.2113905170   -1.1271011895
C       -8.5657622744    1.0282634532   -2.5492182438
C       -8.8370089405    3.2695841918   -1.6673775074
C       -1.0258767581    0.4576588783   -1.2476944887
C       -2.2792889477   -0.1096013312   -0.9356653986
C       -1.8954791562    2.6946406550   -0.7677927205
C       -3.1540852479    2.1651564555   -0.5215398922
C       -6.7437572989    2.0677224298   -1.2844998207
C       -4.4882565561    2.9211021730   -0.3636642165
C       -9.3454692009    2.1813780783   -2.3886192762
C       -0.8394990838    1.8339357185   -1.1473944620
C       -3.3425593775    0.7216792278   -0.6549731986
C       -5.3622009349    1.9593626227   -0.8016225061
C       -4.9352380083    5.0737055031    0.8654916114
C       -4.5700687957    4.4163903249   -0.4804527665
O      -10.5985063022    2.1814921500   -2.9447939296
O        0.4131652779    2.3272434812   -1.4408937982
S       -4.9129930160    0.4631404513    0.1623309051
H       -6.6937277427    0.0789184160   -2.1174234303
H       -7.2038703951    4.0508609533   -0.5387443420
H       -8.9750711344    0.1875471742   -3.1013675960
H       -9.4490725962    4.1571539913   -1.5134144862
H       -0.1899671925   -0.1651776645   -1.5506429130
H       -2.4045296688   -1.1889662975   -0.9438001150
H       -1.7135433090    3.7666809361   -0.6966934840
H       -5.9051894063    4.7218954924    1.2312496888
H       -4.9801746528    6.1633053389    0.7643514734
H       -4.1909680005    4.8314531656    1.6305014837
H       -3.6109687470    4.8195252988   -0.8216711331
H       -5.3063633887    4.6939493642   -1.2418744720
H      -11.0302294128    3.0307709247   -2.7598495751
H        0.4089051773    3.2898502998   -1.3228190185
33   
torsion grid (-45,)
C       -7.3888089412    1.0887670223   -2.3115370268
C       -7.6553318229    3.0641281993   -0.9548940324
C       -8.7050964598    1.1954942959   -2.7479916911
C       -8.9789720042    3.1785599551   -1.3805526639
C       -0.9039184488    0.5246939916   -0.9320908306
C       -2.1622849171   -0.0787591151   -0.8061121571
C       -1.9119686394    2.7385471531   -0.7140850604
C       -3.1798452381    2.1557068520   -0.6329299615
C       -6.8274279049    2.0249793809   -1.4182590906
C       -4.5089058365    2.8323645489   -0.6403466635
C       -9.5058099083    2.2479507280   -2.2855201060
C       -0.7840896781    1.9189941311   -0.8757214180
C       -3.2912104191    0.7234182111   -0.7151517507
C       -5.4168622807    1.8741833920   -1.0263343886
C       -4.6940606529    5.0288559687    0.5845020757
C       -4.6332033366    4.3248041995   -0.7848203045
O      -10.7980009857    2.3085305856   -2.7424024637
O        0.4850470611    2.4417626351   -0.9945472531
S       -4.9497533380    0.3258476389   -0.2217234964
H       -6.7715007004    0.2705609006   -2.6708929242
H       -7.2793296583    3.7683029428   -0.2208909995
H       -9.1290829608    0.4758688798   -3.4419332249
H       -9.6048355884    3.9823698369   -0.9954972841
H       -0.0069251458   -0.0722608105   -1.0652150808
H       -2.2479320916   -1.1619511193   -0.8050061092
H       -1.7952952399    3.8208651916   -0.6746052511
H       -5.5610357351    4.6941377153    1.1636627841
H       -4.7632768535    6.1149017242    0.4607815931
H       -3.8014901328    4.8091797107    1.1790974757
H       -3.7783473778    4.7164458433   -1.3491641183
H       -5.5245548468    4.5710749118   -1.3679979440
H      -11.2408657454    3.0754715642   -2.3456987374
H        0.4349793077    3.4084085371   -0.9318103355
33   
torsion grid (-30,)
C       -7.4476315958    1.1645762571   -2.4318151505
C       -7.6549978225    2.9834659406   -0.8636972287
C       -8.7830907551    1.3101120096   -2.7951529332
C       -8.9954422354    3.1387627659   -1.2186031242
C       -0.8389410900    0.5672691361   -0.7436581482
C       -2.0824341921   -0.0650098033   -0.7484029577
C       -1.9148728841    2.7577910888   -0.6930431182
C       -3.1758755063    2.1382565917   -0.7215407659
C       -6.8499736419    2.0023501916   -1.4688338247
C       -4.4948931831    2.7809057514   -0.8091125193
C       -9.5626169304    2.3043433745   -2.1903095338
C       -0.7606047281    1.9706979139   -0.7123657678
C       -3.2392944905    0.7123677005   -0.7741810282
C       -5.4268193020    1.8245330496   -1.1308676570
C       -4.6306881491    4.9965569809    0.4066915024
C       -4.6437249709    4.2723170540   -0.9527479827
O      -10.8740385045    2.4070188321   -2.5819082838
O        0.5036741863    2.5183750762   -0.7074566331
S       -4.9156923102    0.2181389296   -0.5666646992
H       -6.8461729288    0.3955874153   -2.9082269649
H       -7.2413431428    3.6109237127   -0.0813299928
H       -9.2367248967    0.6667492009   -3.5431514876
H       -9.6018676754    3.8984464967   -0.7275102960
H        0.0823462683   -0.0067479710   -0.7626553287
H       -2.1406172127   -1.1500167283   -0.7516466409
H       -1.8341089121    3.8434407874   -0.6712556182
H       -5.4613321663    4.6654258214    1.0386765490
H       -4.7154046354    6.0802398863    0.2716599369
H       -3.7056184487    4.7924667052    0.9551957342
H       -3.8267901869    4.6615668942   -1.5728345040
H       -5.5701694889    4.5040690118   -1.4848282117
H      -11.2984604227    3.1265999053   -2.0882593075
H        0.4278455303    3.4850882133   -0.6809998436
33   
torsion grid (-15,)
C       -7.4834236403    1.2072185361   -2.4969936528
C       -7.6393240632    2.9347331845   -0.8237211416
C       -8.8313356598    1.3679985695   -2.8043038995
C       -8.9911082973    3.1071459275   -1.1244012050
C       -0.8088479948    0.5930680354   -0.5949480434
C       -2.0376387457   -0.0501030272   -0.7054449747
C       -1.9019383560    2.7725930442   -0.6767257760
C       -3.1537216355    2.1354932744   -0.7953829317
C       -6.8550851945    1.9906920560   -1.5085075165
C       -4.4611549782    2.7495228757   -0.9597865564
C       -9.5909500351    2.3246206276   -2.1190005865
C       -0.7459379325    2.0006444844   -0.5810064903
C       -3.2002071366    0.7177562435   -0.8232379513
C       -5.4251792777    1.8027423885   -1.2105577205
C       -4.6108643708    4.9486055754    0.3020042674
C       -4.6367140019    4.2424070972   -1.0665686247
O      -10.9153341944    2.4446971548   -2.4597316470
O        0.5093559655    2.5576163301   -0.4716354249
S       -4.8620195557    0.1613754680   -0.8691104390
H       -6.8980850414    0.4713842101   -3.0412857651
H       -7.1974519464    3.5217365064   -0.0255694697
H       -9.3091684159    0.7666913325   -3.5719858554
H       -9.5797359240    3.8395105510   -0.5737988285
H        0.1155784946    0.0287504427   -0.5201605897
H       -2.0837385092   -1.1356816424   -0.7111464221
H       -1.8366355900    3.8591329926   -0.6688960155
H       -5.4262453486    4.5976456846    0.9428105027
H       -4.7136234920    6.0326936653    0.1829704542
H       -3.6752051282    4.7513458472    0.8343670963
H       -3.8363595826    4.6527912214   -1.6950948143
H       -5.5752001990    4.4695175051   -1.5793803032
H      -11.3234294989    3.1346105279   -1.9128688422
H        0.4259494697    3.5241195339   -0.4719974830
33   
torsion grid (0,)
C       -7.5273434238    1.2135536541   -2.5248595524
C       -7.6369507197    2.8778682238   -0.7862830319
C       -8.8842770282    1.3804922462   -2.7848011085
C       -8.9976581559    3.0575808093   -1.0402290499
C       -0.8167423407    0.5986000840   -0.5025984797
C       -2.0297231213   -0.0525271069   -0.6949491933
C       -1.9118065466    2.7703607608   -0.6851618792
C       -3.1513119119    2.1227736798   -0.8726138675
C       -6.8711747794    1.9621141998   -1.5271710540
C       -4.4519387624    2.7187067486   -1.0953825548
C       -9.6256449178    2.3089868901   -2.0429306090
C       -0.7618486702    2.0076130247   -0.5019740506
C       -3.1900199769    0.7083272496   -0.8801001375
C       -5.4355571505    1.7728270525   -1.2629091712
C       -4.6164789432    4.9017664027    0.2102338290
C       -4.6513775225    4.2113748126   -1.1662563123
O      -10.9600472548    2.4364538885   -2.3398718570
O        0.4803353973    2.5719281963   -0.3119892638
S       -4.8161077121    0.1208642960   -1.1571579830
H       -6.9583948357    0.5020869086   -3.1170768208
H       -7.1718736415    3.4388827680    0.0172144094
H       -9.3831300470    0.8063540743   -3.5599014951
H       -9.5700585091    3.7692862761   -0.4471119110
H        0.1027948872    0.0407808586   -0.3546346414
H       -2.0675979734   -1.1384042295   -0.7026234041
H       -1.8541656453    3.8571669205   -0.6862086955
H       -5.4185476574    4.5331951875    0.8574570147
H       -4.7356131978    5.9856399084    0.1047104466
H       -3.6721603730    4.7118561030    0.7292286121
H       -3.8645135948    4.6408625206   -1.7994414322
H       -5.5990983275    4.4336866465   -1.6642696658
H      -11.3534796196    3.1043484026   -1.7561880694
H        0.3936510561    3.5379630489   -0.3316591005
33   
torsion grid (15,)
C       -7.5633243232    1.2379946627   -2.5653353889
C       -7.6167510849    2.8566037672   -0.7835477549
C       -8.9256710410    1.4179632680   -2.7832629850
C       -8.9833402871    3.0491950799   -0.9943464738
C       -0.8558236596    0.5828266633   -0.4264273406
C       -2.0529759107   -0.0658960149   -0.7117301441
C       -1.9296128564    2.7571748372   -0.6938132826
C       -3.1556453073    2.1149015852   -0.9605908184
C       -6.8746746008    1.9580151747   -1.5680727428
C       -4.4480720176    2.7176643311   -1.2415355888
C       -9.6425370676    2.3301873129   -1.9980008358
C       -0.7973315807    1.9906026279   -0.4259496268
C       -3.1980456638    0.6967692618   -0.9622348064
C       -5.4336454920    1.7630635229   -1.3355068697
C       -4.6126148246    4.8810582226    0.1147790680
C       -4.6554311792    4.2097765553   -1.2712441137
O      -10.9840070677    2.4707670444   -2.2554825155
O        0.4282942934    2.5534744876   -0.1454132127
S       -4.7727132315    0.1278864948   -1.4804569752
H       -7.0176389966    0.5393639840   -3.1939015820
H       -7.1274284760    3.3948893934    0.0208821742
H       -9.4481453671    0.8663653344   -3.5591835319
H       -9.5348723186    3.7481947001   -0.3673183934
H        0.0479359810    0.0227395271   -0.2070089515
H       -2.0910206856   -1.1515795933   -0.7319596194
H       -1.8666663666    3.8436377966   -0.6931636432
H       -5.4050686978    4.4970435826    0.7642785884
H       -4.7433552781    5.9649229554    0.0240426658
H       -3.6627451550    4.6939857936    0.6236720148
H       -3.8748767342    4.6519679183   -1.9038103701
H       -5.6080173814    4.4368805468   -1.7581228295
H      -11.3585174149    3.1239518693   -1.6434008822
H        0.3463711193    3.5195131485   -0.1792566945
33   
torsion grid (30,)
C       -7.5780643893    1.2094607630   -2.5492621892
C       -7.5611555158    2.8682328613   -0.8058937337
C       -8.9492974513    1.3759562655   -2.7090214269
C       -8.9378939012    3.0447644612   -0.9556732798
C       -0.8989331753    0.5841378427   -0.3391188840
C       -2.0691054542   -0.0566098084   -0.7462674870
C       -1.9407567670    2.7668629619   -0.6682734070
C       -3.1418633653    2.1383653067   -1.0385743212
C       -6.8461714491    1.9593330328   -1.6047509489
C       -4.4285001914    2.7598533507   -1.3783990537
C       -9.6373064224    2.3007751948   -1.9121487177
C       -0.8362378182    1.9882770137   -0.3128977730
C       -3.1894854454    0.7112998157   -1.0610850112
C       -5.3957323123    1.7821639659   -1.4266464775
C       -4.6002089860    4.8813851086    0.0622670860
C       -4.6436429860    4.2493214477   -1.3428326465
O      -10.9903672360    2.4249021413   -2.1097354892
O        0.3596926150    2.5455131029    0.0836772067
S       -4.6809381281    0.2050267127   -1.8439799378
H       -7.0627571757    0.4950915657   -3.1858039280
H       -7.0433999675    3.4263098173   -0.0342888146
H       -9.5024176387    0.8015273417   -3.4461529905
H       -9.4652748575    3.7517110411   -0.3169019289
H       -0.0207966895    0.0164768469   -0.0470761858
H       -2.1042081599   -1.1410767458   -0.8025292311
H       -1.8693264527    3.8526554383   -0.6476966416
H       -5.3808173984    4.4690517607    0.7079975299
H       -4.7481738232    5.9650285189    0.0006306981
H       -3.6446777374    4.6961663259    0.5598383818
H       -3.8645367412    4.7140870004   -1.9612424588
H       -5.5971897089    4.4887083943   -1.8223794969
H      -11.3419874301    3.0879027155   -1.4946153223
H        0.2826327845    3.5120135728    0.0532128533
33   
torsion grid (45,)
C       -7.5766112364    1.1177554888   -2.4684512403
C       -7.5008188280    2.9506618974   -0.9104936612
C       -8.9574919927    1.2410913375   -2.5625308735
C       -8.8872673052    3.0789878151   -0.9896910638
C       -0.9881831412    0.5459788813   -0.2972193573
C       -2.1232252239   -0.0452276616   -0.8687742318
C       -1.9482508996    2.7675438267   -0.6261760263
C       -3.1143714662    2.1915502372   -1.1380567653
C       -6.8049260655    1.9821417154   -1.6602844101
C       -4.3950557338    2.8488242753   -1.5159383653
C       -9.6223673943    2.2292496669   -1.8243180381
C       -0.8991734016    1.9394601237   -0.1957972221
C       -3.1924405857    0.7591692942   -1.2367017368
C       -5.3480934451    1.8515726461   -1.5586426566
C       -4.5759256118    4.9032695625    0.0393356227
C       -4.6051728813    4.3336354453   -1.3940380905
O      -10.9868790175    2.3036604725   -1.9479551019
O        0.2562108312    2.4536070868    0.3505475635
S       -4.5607271193    0.4012677049   -2.3089539413
H       -7.0881370320    0.3351059442   -3.0415252377
H       -6.9607913165    3.5952464316   -0.2286211024
H       -9.5377861360    0.5772781223   -3.1964124356
H       -9.3952659992    3.8330017012   -0.3902279248
H       -0.1592415349   -0.0587823175    0.0574727919
H       -2.1655263015   -1.1223411730   -1.0044590611
H       -1.8511118633    3.8486227957   -0.5446284921
H       -5.3612166867    4.4659399489    0.6621503381
H       -4.7218584156    5.9887370421    0.0214262470
H       -3.6260043511    4.6961680400    0.5376403034
H       -3.8126373223    4.8221259025   -1.9763768090
H       -5.5489112940    4.6034385725   -1.8774755333
H      -11.3195636745    3.0177124591   -1.3812630245
H        0.1995599846    3.4219035997    0.3555527262
33   
torsion grid (60,)
C       -7.5045522402    1.0614637605   -2.3992985243
C       -7.4329877629    3.0295273868   -1.0115345510
C       -8.8937630166    1.0972087230   -2.3947012812
C       -8.8246829567    3.0703076701   -0.9939043874
C       -1.1641370667    0.4731908246   -0.2361677706
C       -2.2430927348   -0.0391128386   -0.9879947111
C       -1.9753464564    2.7548623760   -0.5926659565
C       -3.0899611434    2.2672518119   -1.2591765723
C       -6.7298970334    2.0390716022   -1.7324130601
C       -4.3552562264    3.0173574275   -1.7008002170
C       -9.5643491859    2.1080428931   -1.6946713083
C       -1.0255471971    1.8476659979   -0.0664121939
C       -3.2239151400    0.8223182149   -1.4301516093
C       -5.2690627189    1.9893973613   -1.7312891852
C       -4.5373972261    4.9734962375   -0.0122181513
C       -4.5479756387    4.4897936344   -1.4786851891
O      -10.9350731294    2.0952572647   -1.7158188330
O        0.0692565286    2.2925196768    0.6419497284
S       -4.4293594672    0.6996668353   -2.7464951755
H       -7.0033383591    0.2558979683   -2.9260001027
H       -6.8916710892    3.7664574596   -0.4333788073
H       -9.4754081305    0.3449514348   -2.9191250520
H       -9.3356585856    3.8453476170   -0.4244414606
H       -0.4177737984   -0.1876827857    0.1936211056
H       -2.3019400798   -1.1033179691   -1.1991954935
H       -1.8265963517    3.8246186542   -0.4548882700
H       -5.3094993130    4.4784412092    0.5828718824
H       -4.7136617434    6.0536525261    0.0304895834
H       -3.5828411412    4.7662873905    0.4754871250
H       -3.7417610146    5.0053232440   -2.0170085049
H       -5.4816288405    4.7976716747   -1.9602710392
H      -11.2697551647    2.8380827626   -1.1885347018
H        0.0516462008    3.2616135908    0.6752863825
