8    
torsion grid (-165,)
C        0.0018671381   -0.3841193169   -0.7218409099
C        0.0378426548    0.4278766691    0.5840261859
Cl      -0.2905876091   -2.1385141893   -0.4912727879
Cl      -0.1115113059    2.1664763120    0.0957180001
Cl       1.5797738420    0.1572409173    1.4551216278
Cl      -1.3450524315    0.0352401667    1.6570346087
H        0.9474893561   -0.2522341256   -1.2463799510
H       -0.8198310214   -0.0119664280   -1.3324068795
8    
torsion grid (-150,)
C        0.0285397912   -0.4005420121   -0.7203650163
C        0.0367620012    0.4325771094    0.5878715235
Cl      -0.5174607171   -2.0996128553   -0.5502107667
Cl      -0.2749886386    2.1524539834    0.1083629136
Cl       1.6297112130    0.2903443316    1.4029956835
Cl      -1.2596569711   -0.0438632714    1.7323265626
H        1.0291038461   -0.3946699280   -1.1491608207
H       -0.6720199017    0.0633126477   -1.4118201853
8    
torsion grid (-135,)
C        0.0470542996   -0.4167492415   -0.7192986450
C        0.0232283467    0.4358647867    0.5935261457
Cl      -0.7385793653   -2.0255908215   -0.6398160794
Cl      -0.4380501639    2.1267564339    0.1331037376
Cl       1.6677606182    0.4424964018    1.3323563607
Cl      -1.1550144981   -0.1321504392    1.8150676550
H        1.0807082491   -0.5625435487   -1.0240858432
H       -0.4871168635    0.1319164337   -1.4908534373
8    
torsion grid (-120,)
C        0.0603163159   -0.4291219894   -0.7145159878
C        0.0020167869    0.4370316931    0.5950874022
Cl      -0.9449024656   -1.9127128964   -0.7390980117
Cl      -0.5999126184    2.0882224224    0.1590186256
Cl       1.6899068532    0.6057680965    1.2331283557
Cl      -1.0307371864   -0.2250532165    1.8897902674
H        1.0869381052   -0.7484603243   -0.8723653016
H       -0.2636351678    0.1843262198   -1.5510454556
8    
torsion grid (-105,)
C        0.0752389163   -0.4375388250   -0.7016925202
C       -0.0160343418    0.4355488280    0.5906764295
Cl      -1.1234063877   -1.7646181961   -0.8383136493
Cl      -0.7543903177    2.0331025867    0.1767295982
Cl       1.6952191561    0.7612478968    1.1175515356
Cl      -0.8965704047   -0.3120710921    1.9427626909
H        1.0479078190   -0.9227561896   -0.7165201186
H       -0.0279738164    0.2070849966   -1.5711940720
8    
torsion grid (-90,)
C        0.0947255095   -0.4460507655   -0.6835617150
C       -0.0223366175    0.4335976236    0.5839164863
Cl      -1.2628661176   -1.5919689793   -0.9362645227
Cl      -0.8971432882    1.9597362649    0.1893663954
Cl       1.6874119921    0.8952794956    1.0136300485
Cl      -0.7671828490   -0.3849047904    1.9751318576
H        0.9852911310   -1.0641319677   -0.5862300789
H        0.1820908627    0.1984431241   -1.5559885770
8    
torsion grid (-75,)
C        0.1141228651   -0.4606471911   -0.6643010736
C       -0.0150705140    0.4372801869    0.5756821182
Cl      -1.3627114496   -1.4117265588   -1.0306402046
Cl      -1.0255495972    1.8756168133    0.2029423798
Cl       1.6726934122    1.0117631507    0.9319547186
Cl      -0.6488997808   -0.4328182856    1.9973014315
H        0.9128260666   -1.1799888794   -0.4865155604
H        0.3525796207    0.1605207693   -1.5264239153
8    
torsion grid (-60,)
C        0.1258772765   -0.4816738992   -0.6459945227
C       -0.0032116742    0.4486074486    0.5664012435
Cl      -1.4222887069   -1.2400627951   -1.1403715766
Cl      -1.1395517291    1.7944749225    0.2366118440
Cl       1.6527578462    1.1191912445    0.8568361869
Cl      -0.5363441694   -0.4588283503    2.0186971312
H        0.8266192400   -1.2792898500   -0.4006932201
H        0.4961325399    0.0975812843   -1.4914871921
8    
torsion grid (-45,)
C        0.1266053732   -0.5060535187   -0.6304719630
C        0.0032138387    0.4639210133    0.5579544537
Cl      -1.4401612925   -1.0851673815   -1.2806381101
Cl      -1.2402841599    1.7213801290    0.2984750388
Cl       1.6259804222    1.2220916482    0.7760634640
Cl      -0.4191211214   -0.4650222948    2.0472137554
H        0.7183161295   -1.3664783612   -0.3213585891
H        0.6254414332    0.0153287708   -1.4472381557
8    
torsion grid (-30,)
C        0.1185065104   -0.5307141248   -0.6197335531
C        0.0043072373    0.4765737916    0.5539690483
Cl      -1.4212255187   -0.9361414246   -1.4417023465
Cl      -1.3288281272    1.6504665259    0.3773648325
Cl       1.5861673512    1.3288484118    0.6866880985
Cl      -0.2847934146   -0.4557741602    2.0835060501
H        0.5753495719   -1.4476691791   -0.2532741559
H        0.7505070126   -0.0855898353   -1.3868180797
8    
torsion grid (-15,)
C        0.1069445831   -0.5532170584   -0.6120782460
C        0.0000032621    0.4808162497    0.5572583881
Cl      -1.3637176479   -0.7775013956   -1.6109596845
Cl      -1.4088980652    1.5715355704    0.4614696085
Cl       1.5237766072    1.4470160717    0.5861109563
Cl      -0.1231612398   -0.4383778479    2.1189094907
H        0.3878321563   -1.5197340832   -0.2014780390
H        0.8772109672   -0.2105375014   -1.2992325801
8    
torsion grid (0,)
C       -0.1628456197   -0.5649191385   -0.5940255177
C        0.0660057634    0.4747283378    0.5617327079
Cl       1.1131268056   -0.6623759493   -1.8485708536
Cl       1.5817628422    1.4087012802    0.4425530668
Cl       0.0618336280   -0.4191884927    2.1368327563
Cl      -1.3262586052    1.6330572102    0.5657790997
H       -1.0869741130   -0.3138334533   -1.1077531196
H       -0.2466600783   -1.5561697890   -0.1565482456
8    
torsion grid (15,)
C       -0.1733441107   -0.5466758386   -0.6026807047
C        0.0597043718    0.4794229162    0.5552566490
Cl       1.2150974078   -0.8376843539   -1.6974223539
Cl       1.5083231522    1.5034551499    0.3636609036
Cl       0.2441705130   -0.4469504208    2.1065935681
Cl      -1.4120381737    1.5155305014    0.6845431165
H       -0.9710772719   -0.1674031408   -1.2372631295
H       -0.4708452656   -1.4996948081   -0.1726881549
8    
torsion grid (30,)
C       -0.1843314778   -0.5236466721   -0.6095797329
C        0.0549969350    0.4753905810    0.5522695832
Cl       1.2763524974   -0.9990954754   -1.5321466900
Cl       1.4265676998    1.5861623802    0.2849811079
Cl       0.4020835172   -0.4718042762    2.0604765016
Cl      -1.4729944799    1.4002412213    0.7892554914
H       -0.8448364702   -0.0483582658   -1.3333290546
H       -0.6578475986   -1.4188894877   -0.2119273124
8    
torsion grid (45,)
C       -0.1919731098   -0.4986187029   -0.6197906215
C        0.0557638271    0.4626946190    0.5561925533
Cl       1.2990632084   -1.1490938205   -1.3724789576
Cl       1.3363417622    1.6612482515    0.2120857801
Cl       0.5331030582   -0.4872446981    2.0152875362
Cl      -1.5116659249    1.2953163089    0.8812627146
H       -0.7195300258    0.0467169388   -1.4021439573
H       -0.8011121725   -1.3310188913   -0.2704151537
8    
torsion grid (60,)
C       -0.1911504965   -0.4742752955   -0.6353652128
C        0.0620198160    0.4470851521    0.5642141768
Cl       1.2834225240   -1.3032071674   -1.2310887680
Cl       1.2352096016    1.7390540837    0.1569906949
Cl       0.6483151479   -0.4864752719    1.9789777498
Cl      -1.5377417865    1.1936493191    0.9638074432
H       -0.5897815154    0.1229236863   -1.4550785856
H       -0.9103026681   -1.2387545011   -0.3424576042
8    
torsion grid (75,)
C       -0.1796809686   -0.4537905631   -0.6544503665
C        0.0739326496    0.4352031301    0.5726980684
Cl       1.2233905578   -1.4720795341   -1.1173471779
Cl       1.1231142895    1.8254724741    0.1309017931
Cl       0.7602753809   -0.4657048231    1.9500544786
Cl      -1.5575880009    1.0871495707    1.0402597077
H       -0.4461128982    0.1791601279   -1.4996451724
H       -0.9973403871   -1.1354103772   -0.4224714368
8    
torsion grid (90,)
C       -0.1609575131   -0.4400837725   -0.6749891408
C        0.0815541791    0.4311731326    0.5804332510
Cl       1.1217971287   -1.6476208391   -1.0162175208
Cl       0.9981466803    1.9155049844    0.1258210352
Cl       0.8789128023   -0.4233204767    1.9199413138
Cl      -1.5722175337    0.9713508974    1.1229190666
H       -0.2764043622    0.2091431816   -1.5406160933
H       -1.0708407585   -1.0161471025   -0.5172920176
8    
torsion grid (105,)
C       -0.1423529758   -0.4324607984   -0.6943970877
C        0.0758163336    0.4334052420    0.5875968360
Cl       0.9813144003   -1.8137370299   -0.9088808791
Cl       0.8584421083    1.9954632130    0.1226544543
Cl       1.0090962112   -0.3565444289    1.8788694356
Cl      -1.5792873676    0.8376664881    1.2273394189
H       -0.0676547056    0.2080111180   -1.5698636689
H       -1.1353833814   -0.8718037986   -0.6433186150
8    
torsion grid (120,)
C       -0.1279463087   -0.4247284290   -0.7082038223
C        0.0581897705    0.4357207336    0.5932040649
Cl       0.8031462885   -1.9535077824   -0.7977068171
Cl       0.7058618792    2.0577488854    0.1152383334
Cl       1.1433245034   -0.2757902453    1.8168982594
Cl      -1.5735004343    0.6819275391    1.3425438476
H        0.1675096080    0.1742644495   -1.5655006433
H       -1.1765946835   -0.6956351455   -0.7964733285
8    
torsion grid (135,)
C       -0.1144721620   -0.4129796493   -0.7138829817
C        0.0368900035    0.4355459453    0.5930680805
Cl       0.5988973457   -2.0568041413   -0.6846591019
Cl       0.5445995015    2.1038239190    0.1001574548
Cl       1.2665144110   -0.1886626860    1.7338785426
Cl      -1.5523931696    0.5176465451    1.4403218231
H        0.3918341559    0.1114040164   -1.5203229782
H       -1.1718794631   -0.5099739439   -0.9485609450
8    
torsion grid (150,)
C       -0.0953355056   -0.3976510958   -0.7162117702
C        0.0228697107    0.4329012470    0.5883372252
Cl       0.3810648432   -2.1205822547   -0.5803367485
Cl       0.3816225092    2.1371304993    0.0863481127
Cl       1.3693831545   -0.1052182710    1.6441801828
Cl      -1.5168316215    0.3637767054    1.5084932680
H        0.5782153436    0.0341353970   -1.4537383234
H       -1.1209978111   -0.3444922219   -1.0770720525
8    
torsion grid (165,)
C       -0.0680852951   -0.3824868173   -0.7194955742
C        0.0213161854    0.4282623332    0.5845802715
Cl       0.1570805177   -2.1489616329   -0.5062822610
Cl       0.2184967341    2.1587748023    0.0846535270
Cl       1.4531396525   -0.0300624599    1.5632167432
Cl      -1.4697732384    0.2284095576    1.5573670441
H        0.7273423147   -0.0480734798   -1.3842806362
H       -1.0395262479   -0.2058622979   -1.1797592203
8    
torsion grid (180,)
C       -0.0330302607   -0.3780072268   -0.7220023540
C        0.0294748484    0.4274829773    0.5816030841
Cl      -0.0660016972   -2.1531781379   -0.4697744833
Cl       0.0535084360    2.1689386078    0.0862626960
Cl       1.5213766461    0.0547276155    1.5024467373
Cl      -1.4131788397    0.1232124529    1.6008367358
H        0.8471678265   -0.1424342296   -1.3196348847
H       -0.9393263363   -0.1007420538   -1.2597376371
