14   
torsion grid (-165,)
C        0.3440131482   -0.1286175890   -0.5198077018
C       -0.1707365672    0.6141871578    1.4681453517
C       -1.4563138850    0.0568213013    0.7954343039
C        0.2624506381   -0.8807524015   -2.7492236489
N        0.8812478263    0.4891704716    0.4463858333
O       -0.9694328510   -0.4996855742   -0.4647636426
O        1.0108923939   -0.5000868268   -1.6379524949
F        1.1318491627   -1.4713746961   -3.5944205428
F       -0.2462387796    0.2224737338   -3.3668600720
H       -0.2818675126    1.6606914022    1.7656198758
H        0.1116576385    0.0418051245    2.3580783714
H       -1.9394469923   -0.7513569262    1.3468317128
H       -2.1903986445    0.8279161040    0.5500260716
H       -0.5550521651   -1.5607401503   -2.5113372118
14   
torsion grid (-150,)
C        0.3434989304   -0.2148454147   -0.4978571119
C       -0.1779096544    0.6549601201    1.4354029473
C       -1.4524222960    0.0186223570    0.8147534936
C        0.2607253244   -0.8531825343   -2.7523278694
N        0.8641486879    0.5024816335    0.4063321304
O       -0.9546716462   -0.6293654595   -0.3959609572
O        1.0073408350   -0.6596267496   -1.5918872098
F        1.0915226742   -1.4482102118   -3.6310437741
F       -0.1172444162    0.3512602193   -3.2680923216
H       -0.3178760362    1.7135297467    1.6708656021
H        0.1349517969    0.1461907678    2.3533927723
H       -1.9191923559   -0.7506696843    1.4317574703
H       -2.2013930897    0.7536755583    0.5097864487
H       -0.6288553437   -1.4643692175   -2.5989654151
14   
torsion grid (-135,)
C        0.3270580462   -0.3004960377   -0.4799042230
C       -0.1897399337    0.6951928758    1.3930151767
C       -1.4518424000   -0.0309535514    0.8494396014
C        0.2693404669   -0.8128616977   -2.7582363189
N        0.8362072145    0.5045625069    0.3536484400
O       -0.9553550621   -0.7472600825   -0.3217164226
O        0.9755878493   -0.8085634621   -1.5572965403
F        1.0471916818   -1.4638019580   -3.6448067898
F        0.0919003183    0.4654697700   -3.1986486255
H       -0.3623826108    1.7630202800    1.5521476104
H        0.1613919563    0.2679786532    2.3381961794
H       -1.8757622796   -0.7687719918    1.5323928377
H       -2.2348394926    0.6526902501    0.5116212137
H       -0.7061323440   -1.2957544236   -2.6836959333
14   
torsion grid (-120,)
C        0.2964654753   -0.3785313339   -0.4685099653
C       -0.2046937331    0.7307494902    1.3441736119
C       -1.4511429463   -0.0833617962    0.8966589293
C        0.2859967226   -0.7653974620   -2.7652305819
N        0.7960451959    0.5057226831    0.2868812531
O       -0.9624264444   -0.8592282385   -0.2386696625
O        0.9191784754   -0.9398020354   -1.5373747747
F        0.9845502633   -1.4966739844   -3.6549486304
F        0.3448908281    0.5430019532   -3.1423912059
H       -0.4163661806    1.7997440812    1.4320137108
H        0.1946747164    0.3883773267    2.3045683294
H       -1.8210643678   -0.7868319837    1.6442438681
H       -2.2735927645    0.5426455633    0.5407997180
H       -0.7598918299   -1.0799631326   -2.7560583942
14   
torsion grid (-105,)
C        0.2474015428   -0.4363150141   -0.4676856410
C       -0.2370456512    0.7665586742    1.2902339177
C       -1.4488040108   -0.1518228981    0.9627530081
C        0.3218798521   -0.7049657464   -2.7769737045
N        0.7318805818    0.5181365494    0.2089260768
O       -0.9729783623   -0.9627144394   -0.1527447257
O        0.8431718511   -1.0391299058   -1.5315206318
F        0.8463628650   -1.5820660933   -3.6557679780
F        0.7164447486    0.5469276396   -3.1375340295
H       -0.5088717251    1.8254787361    1.3075584135
H        0.2228240044    0.5236574550    2.2536434726
H       -1.7292589210   -0.8295145802    1.7707701739
H       -2.3303950392    0.3969520714    0.6211940674
H       -0.7699883258   -0.7507313173   -2.8066962138
14   
torsion grid (-90,)
C        0.7437538918   -0.5336097549    0.1148756929
C       -0.3466991109    0.7047589830    1.5503479422
C       -1.3212740344    0.2565180111    0.4222216042
C        2.4628656703   -0.6251916962   -1.4515482355
N        0.9432441719    0.0809340490    1.2075887910
O       -0.4793493399   -0.5306334498   -0.4712933285
O        1.6690526501   -1.2970485722   -0.5304388026
F        1.7449343535   -0.2982857611   -2.5646390225
F        3.4332180560   -1.4850412388   -1.8164506851
H       -0.2294499419    1.7920682371    1.5938835036
H       -0.6676192747    0.3649137073    2.5393251005
H       -2.1285988980   -0.3914494186    0.7705426525
H       -1.7389662158    1.0818260789   -0.1579065823
H        2.8998250708    0.2875159031   -1.0370286589
14   
torsion grid (-75,)
C        0.6819753940   -0.5456463441    0.0311231648
C       -0.3183561406    0.7468093517    1.4833542738
C       -1.3699523685    0.2060128121    0.4720622526
C        2.5042892132   -0.6227582545   -1.4023855733
N        0.9454216637    0.0961780457    1.0948526286
O       -0.5739667515   -0.5669570818   -0.4754386644
O        1.5612296802   -1.3235734202   -0.6589363369
F        1.9120297649   -0.0253719626   -2.4776685259
F        3.3839760187   -1.5341842335   -1.8592706768
H       -0.2045993775    1.8343171583    1.4265722642
H       -0.5643335254    0.4907036888    2.5176146982
H       -2.0980241507   -0.4735041280    0.9216192950
H       -1.8913097689    0.9827938357   -0.0899431321
H        3.0165573973    0.1424556103   -0.8140756961
14   
torsion grid (-60,)
C        0.6237587667   -0.5283803485   -0.0618932059
C       -0.2964550964    0.7758544540    1.4312501968
C       -1.4069600334    0.1695277608    0.5270063622
C        2.5366848482   -0.6281975769   -1.3681417024
N        0.9479481745    0.1331797054    0.9735005353
O       -0.6626479386   -0.5839896624   -0.4772438350
O        1.4560639425   -1.3041632595   -0.8061056086
F        2.1099908960    0.1437002778   -2.4089778488
F        3.3634271125   -1.5729043193   -1.8559875404
H       -0.2140069413    1.8621552111    1.3192984404
H       -0.4591745473    0.5602945555    2.4907687981
H       -2.0579367627   -0.5348495318    1.0509157239
H       -2.0130533788    0.9098292556    0.0024712296
H        3.0572980069    0.0052185561   -0.6473815737
14   
torsion grid (-45,)
C        0.5771741404   -0.4941909932   -0.1466216219
C       -0.2854758091    0.8053763154    1.3846027670
C       -1.4313713101    0.1336641858    0.5765870046
C        2.5621464795   -0.6403135764   -1.3377581572
N        0.9475021634    0.1985880590    0.8530615498
O       -0.7305246186   -0.6073070908   -0.4685827551
O        1.3726355488   -1.2522350735   -0.9430842854
F        2.3040902557    0.2733561094   -2.3163649393
F        3.3302505327   -1.6146740337   -1.8639974968
H       -0.2558651703    1.8908636851    1.2420671581
H       -0.3652722964    0.6104838987    2.4575492184
H       -2.0091617144   -0.5878183985    1.1597138309
H       -2.1071711964    0.8356755786    0.0858589358
H        3.0759800437   -0.1441935879   -0.5135512373
14   
torsion grid (-30,)
C        0.5389238060   -0.4449578717   -0.2263216159
C       -0.2817583166    0.8308689230    1.3473668897
C       -1.4444806439    0.0985255351    0.6206159837
C        2.5797979912   -0.6535707112   -1.3140021072
N        0.9413219341    0.2785107423    0.7395213266
O       -0.7796283246   -0.6178567957   -0.4643715374
O        1.3039764354   -1.1702155595   -1.0758747305
F        2.5002945614    0.3462044321   -2.2340111174
F        3.2979508942   -1.6617946204   -1.8500057737
H       -0.3133828284    1.9150625253    1.1957801176
H       -0.2837102469    0.6428482705    2.4245561040
H       -1.9467819581   -0.6447306469    1.2449545811
H       -2.1845282177    0.7627069472    0.1717606083
H        3.0569419627   -0.2743260922   -0.4104887570
14   
torsion grid (-15,)
C        0.5111137126   -0.3933526475   -0.2915924216
C       -0.2813731355    0.8553078430    1.3186742211
C       -1.4471290137    0.0669807786    0.6574428292
C        2.5878934962   -0.6702199318   -1.2965571368
N        0.9303419116    0.3710290447    0.6350523865
O       -0.8075992783   -0.6381129023   -0.4499746059
O        1.2546707919   -1.0753056976   -1.1916369371
F        2.6744882402    0.3856095688   -2.1484844902
F        3.2512976081   -1.7085661493   -1.8479300468
H       -0.3774380953    1.9367444403    1.1758457468
H       -0.2103635998    0.6643435310    2.3931546586
H       -1.8895479957   -0.6866071376    1.3136465730
H       -2.2335890920    0.6959101628    0.2373559768
H        3.0221714985   -0.3964858252   -0.3355167820
14   
torsion grid (0,)
C        0.4719535696   -0.2526419094   -0.4013460011
C       -0.2230987854    0.6768302239    1.4524576104
C       -1.4433230965    0.1022985851    0.6757261792
C        2.5441371385   -0.5646534079   -1.4077226873
N        0.9446954410    0.3378181893    0.6216494621
O       -0.8557130434   -0.4583738970   -0.5377435862
O        1.1586186855   -0.7382670127   -1.4584566028
F        2.9704536051   -0.5679679240   -2.6896012202
F        3.1121158934   -1.6237418218   -0.7755046241
H       -0.2868360780    1.7620666302    1.5801832450
H       -0.1164793391    0.2291772234    2.4450196168
H       -1.9546362377   -0.7093834120    1.1976405115
H       -2.1702060626    0.8573943703    0.3702469187
H        2.8332553584    0.3567192406   -0.9030688504
14   
torsion grid (15,)
C        0.4710787540   -0.1985291340   -0.4249118598
C       -0.2269602480    0.6914793092    1.4464639222
C       -1.4365180862    0.0752434523    0.6870213370
C        2.5454125746   -0.5723464488   -1.4030609779
N        0.9223989028    0.4846106758    0.5487867450
O       -0.8319223018   -0.5474680488   -0.4874016113
O        1.1535037853   -0.6311540069   -1.5091277959
F        3.0172529575   -0.5872329947   -2.6676466581
F        2.9991300867   -1.6871441100   -0.7705685950
H       -0.3627577448    1.7588261742    1.6431117546
H       -0.0415170513    0.1951767137    2.4046021631
H       -1.9614732536   -0.7056547987    1.2397136235
H       -2.1532602181    0.8192092086    0.3312282571
H        2.8905688918    0.3122590861   -0.8687303328
14   
torsion grid (30,)
C        0.4751712503   -0.1206094847   -0.4504970619
C       -0.2365496176    0.7226685646    1.4363228973
C       -1.4210952104    0.0352286369    0.7011649375
C        2.5433505169   -0.5934113705   -1.3945399675
N        0.8923976113    0.6207907730    0.4951503255
O       -0.7952128647   -0.5798210330   -0.4660692831
O        1.1597779144   -0.4927247242   -1.5580549618
F        3.0680957860   -0.5948227173   -2.6372021700
F        2.8450667845   -1.7827993785   -0.8057803132
H       -0.4434393581    1.7721909007    1.6629155465
H        0.0181834497    0.2202751171    2.3755932589
H       -1.9058156895   -0.7584392645    1.2716197584
H       -2.1732946132    0.7396796374    0.3371409313
H        2.9583010892    0.2190694208   -0.7982839260
14   
torsion grid (45,)
C        0.4884195848   -0.0243908004   -0.4720212742
C       -0.2528699109    0.7627806028    1.4273994129
C       -1.3945635109   -0.0134881650    0.7130591167
C        2.5344013447   -0.6219615692   -1.3869128391
N        0.8609703754    0.7527720595    0.4627236974
O       -0.7438971653   -0.5792012465   -0.4656851144
O        1.1867252518   -0.3300258531   -1.5948805844
F        3.1136108496   -0.6136009061   -2.6037140587
F        2.6559200765   -1.8766313616   -0.8665881520
H       -0.5354018425    1.7925951162    1.6621549873
H        0.0599445247    0.2797553518    2.3592949895
H       -1.8066999587   -0.8416808331    1.2913837131
H       -2.2047868226    0.6312269523    0.3631469091
H        3.0231642524    0.0891257304   -0.7198808316
14   
torsion grid (60,)
C        0.5115227944    0.0743751964   -0.4804460061
C       -0.2772161484    0.8126438459    1.4194982384
C       -1.3556569261   -0.0649075888    0.7238813740
C        2.5173691879   -0.6592005821   -1.3827488348
N        0.8259922271    0.8864934356    0.4450346255
O       -0.6707554401   -0.5825729634   -0.4567627543
O        1.2330708006   -0.1706879190   -1.6067298708
F        3.1553000301   -0.6099200968   -2.5680196153
F        2.4547103024   -1.9640412544   -0.9866068488
H       -0.6425086112    1.8177680870    1.6467060095
H        0.0843477821    0.3682779961    2.3529496288
H       -1.6901262205   -0.9196754723    1.3136479658
H       -2.2214338695    0.5052502240    0.3775172516
H        3.0603211399   -0.0865278302   -0.6284411920
14   
torsion grid (75,)
C        0.5505881976    0.1810603323   -0.4722649061
C       -0.3134524845    0.8662395170    1.4156015225
C       -1.3022230894   -0.1204832748    0.7302262747
C        2.4927278951   -0.7008843646   -1.3843965972
N        0.7998822129    1.0061346092    0.4604556248
O       -0.5840949976   -0.5584233958   -0.4619714163
O        1.3091992618   -0.0003061375   -1.5885353623
F        3.1850406014   -0.6244006086   -2.5368456657
F        2.2279053446   -2.0163004661   -1.1325438595
H       -0.7644787394    1.8442803473    1.6048127108
H        0.0657504200    0.4832978356    2.3687012161
H       -1.5320223700   -1.0076864962    1.3227760045
H       -2.2308036414    0.3515623161    0.4003108438
H        3.0809184377   -0.2968151360   -0.5568464183
14   
torsion grid (90,)
C        0.6002646323    0.2678467828   -0.4411329451
C       -0.3606587383    0.9351678537    1.4066922153
C       -1.2359614615   -0.1718603152    0.7496396874
C        2.4596795055   -0.7544734238   -1.3975563413
N        0.7773586555    1.1141846666    0.4882875927
O       -0.4852783439   -0.5452388181   -0.4436461728
O        1.3999006361    0.1331093652   -1.5356515301
F        3.2378875072   -0.5901371627   -2.4844424238
F        2.0148125974   -2.0441885062   -1.3852147234
H       -0.8970036733    1.8822670185    1.5157210356
H        0.0070565350    0.6450984178    2.3959028458
H       -1.3518050979   -1.0683823470    1.3619918066
H       -2.2180046337    0.1790844952    0.4250093171
H        3.0366889285   -0.5752029489   -0.4861203924
14   
torsion grid (105,)
C        0.6505500800    0.3425611294   -0.4045425587
C       -0.4125856916    1.0176919641    1.3828858771
C       -1.1442420181   -0.2252374869    0.7987584167
C        2.4017586549   -0.8177234201   -1.4222510119
N        0.7563861972    1.2169338062    0.5088066075
O       -0.3804309133   -0.5431396917   -0.4022356250
O        1.4915879183    0.2306804376   -1.4676961909
F        3.3782403146   -0.5151191114   -2.3015518172
F        1.8255830517   -1.9842892023   -1.8250625781
H       -1.0368729582    1.9165280087    1.3658076975
H       -0.0821809537    0.8617705878    2.4139120358
H       -1.1131347599   -1.1006087628    1.4519411891
H       -2.1747250924   -0.0330330977    0.4943952094
H        2.8250032195   -0.9597400829   -0.4236872794
14   
torsion grid (120,)
C        0.1900278756    0.1871106868   -0.6647161371
C       -0.1345444302    0.3759219835    1.4872245317
C       -1.5144896944    0.2750908661    0.7782454022
C        0.3567010747   -0.9695273210   -2.6856958982
N        0.8573902934    0.1932792845    0.4134152938
O       -1.1705526896    0.2622412037   -0.6398489344
O        0.7303832570    0.1205527576   -1.9074226438
F        1.4310134905   -1.3087247396   -3.4312126018
F       -0.6408918648   -0.6208133556   -3.5402901917
H        0.0193440552    1.3496577677    1.9637548854
H       -0.0013839651   -0.3943071190    2.2518290242
H       -2.0500536919   -0.6523841356    0.9974495795
H       -2.1726878636    1.1277570390    0.9518287448
H        0.0323675636   -1.8254037869   -2.0884048489
14   
torsion grid (135,)
C        0.2437793124    0.1406681961   -0.6304683152
C       -0.1334139400    0.4447945692    1.4982522962
C       -1.4881326696    0.1843323170    0.7825710421
C        0.3051484386   -0.9347776802   -2.7110886359
N        0.8886656038    0.2581506858    0.4544126987
O       -1.1212278632    0.1235834969   -0.6293106947
O        0.8130254783    0.0383155043   -1.8548918824
F        1.3598851087   -1.4979434950   -3.3427241218
F       -0.4756713695   -0.3524760649   -3.6572962347
H       -0.0646600266    1.4609869056    1.9008321301
H        0.0417570462   -0.2530162352    2.3215583012
H       -1.9427231554   -0.7738214239    1.0481945352
H       -2.2212722394    0.9837538678    0.8988092670
H       -0.2725363139   -1.7020995122   -2.1926941803
14   
torsion grid (150,)
C        0.2921041680    0.0665779582   -0.5924621716
C       -0.1443046982    0.5021080384    1.5016373718
C       -1.4721970493    0.1427167738    0.7788258332
C        0.2815170719   -0.9240412004   -2.7254227082
N        0.9071717667    0.2888175214    0.4932084235
O       -1.0711538825   -0.0030454178   -0.6181992967
O        0.9019889511   -0.1013145110   -1.7888457436
F        1.2684878185   -1.5332829940   -3.4192493252
F       -0.4327462566   -0.1693470607   -3.6011918002
H       -0.1244505334    1.5440767824    1.8385153322
H        0.0370032360   -0.1338520161    2.3724781668
H       -1.8983678348   -0.8110103074    1.1009759860
H       -2.2357030984    0.9206744487    0.8221427492
H       -0.3767262486   -1.6686268845   -2.2762566117
14   
torsion grid (165,)
C        0.3219131886   -0.0049943648   -0.5605839379
C       -0.1566361974    0.5479394069    1.4970736418
C       -1.4643852329    0.1047886329    0.7821813424
C        0.2716260025   -0.9075945084   -2.7386228355
N        0.9120951479    0.3359234520    0.5075924703
O       -1.0349448031   -0.1510482901   -0.5907605127
O        0.9618897085   -0.2420601749   -1.7291321391
F        1.2067051883   -1.5301422507   -3.4883230554
F       -0.3674428798   -0.0080087858   -3.5341748964
H       -0.1829185418    1.6024933262    1.7909370242
H        0.0419157629   -0.0436249380    2.3953581247
H       -1.8837253628   -0.8251868051    1.1738019583
H       -2.2395803838    0.8717100378    0.7451601636
H       -0.4538881868   -1.6297436069   -2.3643511425
14   
torsion grid (180,)
C        0.3356980058   -0.0624593894   -0.5400231975
C       -0.1640012931    0.5804211305    1.4871083464
C       -1.4614592220    0.0822323160    0.7874600766
C        0.2679084413   -0.8964347760   -2.7462627746
N        0.9003808136    0.4246539368    0.4837672090
O       -1.0019228875   -0.3346287093   -0.5355556762
O        0.9933825416   -0.3646941298   -1.6836831277
F        1.1705155698   -1.5027804987   -3.5458027301
F       -0.3159453597    0.1067699120   -3.4585281404
H       -0.2370483192    1.6285260622    1.7929172896
H        0.0767853184   -0.0100593841    2.3767004062
H       -1.9187894513   -0.7867643773    1.2645504663
H       -2.2128578985    0.8607449330    0.6412170662
H       -0.5000228487   -1.6050758948   -2.4377090080
