55
1 1 C23ClH28N2O
C                     3.117144315594    -5.635398556719    -9.022270026494
C                     3.089815371307    -5.852459174379    -7.516447382850
N                     2.063395942656    -4.998193464522    -6.791589901362
C                     2.296933254785    -3.503292678666    -6.903928492198
C                     3.659769437926    -3.073070722665    -6.378823210204
C                     0.640347325307    -5.380722223723    -7.136682727891
C                    -0.292511963799    -5.003650313460    -5.989189426726
O                     0.367007891068    -5.443328840843    -4.811688629111
C                    -0.252975361646    -5.219743849184    -3.578181366552
C                     0.472378376937    -5.617874393004    -2.454422525844
C                    -0.075812842967    -5.429979827111    -1.185186017078
C                    -1.343132364953    -4.854335629073    -1.021450639855
C                    -2.049407645810    -4.461662897293    -2.164720535368
C                    -1.515796681546    -4.638401354522    -3.445691712826
C                    -1.955390016691    -4.689918004839     0.353324638425
N                    -2.541354133439    -3.363987418261     0.498443143327
C                    -3.226845460753    -3.037622242011     1.685053155112
C                    -3.474556022455    -3.966806114925     2.681486175026
C                    -4.188736803373    -3.611346172370     3.850008147735
C                    -4.629316254958    -2.323802698624     4.033760235046
C                    -4.405983982458    -1.320111494673     3.042919496394
C                    -3.716973811905    -1.693394961783     1.840358913997
C                    -3.545139991319    -0.711378448914     0.827424688126
C                    -3.991549885660     0.583636663081     0.998860689161
C                    -4.640797781147     0.955642066684     2.198583511139
C                    -4.849275954091     0.021657376404     3.191967957017
Cl                   -5.481614531572    -1.928261149016     5.520118449689
H                     3.849227431429    -6.324249672478    -9.451555608712
H                     2.153846472866    -5.850149823865    -9.491722741386
H                     3.426362525644    -4.623070894934    -9.292880737279
H                     4.055896590911    -5.628579034130    -7.063175811662
H                     2.839395120655    -6.886020299289    -7.267648250708
H                     2.135424438302    -5.229824077077    -5.789463172791
H                     2.156950478214    -3.237012981719    -7.952328248814
H                     1.501738120550    -3.032441332530    -6.325157348980
H                     3.692705088844    -1.980724269816    -6.362260937196
H                     3.826311444071    -3.420848530860    -5.354121924704
H                     4.483150397229    -3.415251000161    -7.009212648098
H                     0.354076652159    -4.890890661609    -8.067755895742
H                     0.632810418341    -6.461960654241    -7.281800375526
H                    -0.487184707666    -3.925112718756    -5.949739937726
H                    -1.249452768944    -5.517812216029    -6.136159051720
H                     1.451036762978    -6.073139935672    -2.578481455253
H                     0.493532886822    -5.739285737700    -0.312363380094
H                    -3.030714024030    -4.010683176730    -2.049886371265
H                    -2.098610616943    -4.331077990477    -4.307457879923
H                    -2.756293962300    -5.428500485759     0.475010398548
H                    -1.201385771946    -4.911889688645     1.125205679995
H                    -1.889028924303    -2.638390205243     0.218986362323
H                    -3.111353947427    -4.984581343880     2.598848173732
H                    -4.369344461489    -4.360235871748     4.614406713506
H                    -3.084360432699    -0.987456020670    -0.115987331205
H                    -3.855627856251     1.315802568691     0.207368043824
H                    -4.988279467066     1.976327727964     2.332383169509
H                    -5.362543864680     0.304854133220     4.104053458075
