
  -OEChem-12122420533D

 55 57  0     0  0  0  0  0  0999 V2000
   -2.0264   -5.6803   -9.9310 C   0  0  0  0  0  0  0  0  0  0  0  0
   -1.2500   -6.0607   -8.6783 C   0  0  0  0  0  0  0  0  0  0  0  0
   -1.6338   -7.4258   -8.1239 N   0  3  0  0  0  0  0  0  0  0  0  0
   -1.4986   -8.5667   -9.1305 C   0  0  0  0  0  0  0  0  0  0  0  0
   -0.0794   -8.7810   -9.6346 C   0  0  0  0  0  0  0  0  0  0  0  0
   -0.9222   -7.7332   -6.8252 C   0  0  0  0  0  0  0  0  0  0  0  0
   -1.4185   -6.8718   -5.6622 C   0  0  0  0  0  0  0  0  0  0  0  0
   -0.8627   -7.4868   -4.5266 O   0  0  0  0  0  0  0  0  0  0  0  0
   -1.0946   -6.8935   -3.2874 C   0  0  0  0  0  0  0  0  0  0  0  0
   -0.4721   -7.5102   -2.2000 C   0  0  0  0  0  0  0  0  0  0  0  0
   -0.6569   -6.9891   -0.9198 C   0  0  0  0  0  0  0  0  0  0  0  0
   -1.4601   -5.8604   -0.7042 C   0  0  0  0  0  0  0  0  0  0  0  0
   -2.0698   -5.2564   -1.8095 C   0  0  0  0  0  0  0  0  0  0  0  0
   -1.8947   -5.7627   -3.1021 C   0  0  0  0  0  0  0  0  0  0  0  0
   -1.6890   -5.3168    0.6898 C   0  0  0  0  0  0  0  0  0  0  0  0
   -1.5021   -3.8713    0.7116 N   0  0  0  0  0  0  0  0  0  0  0  0
   -1.7275   -3.1611    1.9051 C   0  0  0  0  0  0  0  0  0  0  0  0
   -2.2493   -3.7597    3.0401 C   0  0  0  0  0  0  0  0  0  0  0  0
   -2.4896   -3.0108    4.2160 C   0  0  0  0  0  0  0  0  0  0  0  0
   -2.1840   -1.6730    4.2663 C   0  0  0  0  0  0  0  0  0  0  0  0
   -1.6440   -0.9976    3.1301 C   0  0  0  0  0  0  0  0  0  0  0  0
   -1.4386   -1.7508    1.9256 C   0  0  0  0  0  0  0  0  0  0  0  0
   -0.9554   -1.0685    0.7763 C   0  0  0  0  0  0  0  0  0  0  0  0
   -0.6513    0.2775    0.8142 C   0  0  0  0  0  0  0  0  0  0  0  0
   -0.8248    1.0089    2.0118 C   0  0  0  0  0  0  0  0  0  0  0  0
   -1.3175    0.3854    3.1392 C   0  0  0  0  0  0  0  0  0  0  0  0
   -2.4717   -0.7975    5.7647 Cl  0  0  0  0  0  0  0  0  0  0  0  0
   -1.7934   -4.6403  -10.1737 H   0  0  0  0  0  0  0  0  0  0  0  0
   -1.7555   -6.2864  -10.7977 H   0  0  0  0  0  0  0  0  0  0  0  0
   -3.1087   -5.7433   -9.7763 H   0  0  0  0  0  0  0  0  0  0  0  0
   -1.4425   -5.3478   -7.8762 H   0  0  0  0  0  0  0  0  0  0  0  0
   -0.1738   -6.0887   -8.8521 H   0  0  0  0  0  0  0  0  0  0  0  0
   -2.6349   -7.3760   -7.9047 H   0  0  0  0  0  0  0  0  0  0  0  0
   -1.8758   -9.4538   -8.6173 H   0  0  0  0  0  0  0  0  0  0  0  0
   -2.1825   -8.3378   -9.9482 H   0  0  0  0  0  0  0  0  0  0  0  0
   -0.0953   -9.6285  -10.3249 H   0  0  0  0  0  0  0  0  0  0  0  0
    0.3036   -7.9202  -10.1876 H   0  0  0  0  0  0  0  0  0  0  0  0
    0.6177   -9.0292   -8.8313 H   0  0  0  0  0  0  0  0  0  0  0  0
   -1.1118   -8.7815   -6.5885 H   0  0  0  0  0  0  0  0  0  0  0  0
    0.1469   -7.5970   -6.9862 H   0  0  0  0  0  0  0  0  0  0  0  0
   -1.0827   -5.8308   -5.7509 H   0  0  0  0  0  0  0  0  0  0  0  0
   -2.5208   -6.8772   -5.6225 H   0  0  0  0  0  0  0  0  0  0  0  0
    0.1503   -8.3840   -2.3680 H   0  0  0  0  0  0  0  0  0  0  0  0
   -0.1658   -7.4703   -0.0777 H   0  0  0  0  0  0  0  0  0  0  0  0
   -2.6879   -4.3764   -1.6564 H   0  0  0  0  0  0  0  0  0  0  0  0
   -2.3905   -5.2689   -3.9316 H   0  0  0  0  0  0  0  0  0  0  0  0
   -2.7216   -5.5286    0.9911 H   0  0  0  0  0  0  0  0  0  0  0  0
   -1.0368   -5.8416    1.4057 H   0  0  0  0  0  0  0  0  0  0  0  0
   -0.6342   -3.6038    0.2589 H   0  0  0  0  0  0  0  0  0  0  0  0
   -2.4685   -4.8209    3.0603 H   0  0  0  0  0  0  0  0  0  0  0  0
   -2.8994   -3.5061    5.0904 H   0  0  0  0  0  0  0  0  0  0  0  0
   -0.8511   -1.6037   -0.1624 H   0  0  0  0  0  0  0  0  0  0  0  0
   -0.2886    0.7792   -0.0789 H   0  0  0  0  0  0  0  0  0  0  0  0
   -0.5811    2.0674    2.0403 H   0  0  0  0  0  0  0  0  0  0  0  0
   -1.4650    0.9516    4.0520 H   0  0  0  0  0  0  0  0  0  0  0  0
  1  2  1  0  0  0  0
  1 28  1  0  0  0  0
  1 29  1  0  0  0  0
  1 30  1  0  0  0  0
  2  3  1  0  0  0  0
  2 31  1  0  0  0  0
  2 32  1  0  0  0  0
  3  4  1  0  0  0  0
  3  6  1  0  0  0  0
  3 33  1  0  0  0  0
  4  5  1  0  0  0  0
  4 34  1  0  0  0  0
  4 35  1  0  0  0  0
  5 36  1  0  0  0  0
  5 37  1  0  0  0  0
  5 38  1  0  0  0  0
  6  7  1  0  0  0  0
  6 39  1  0  0  0  0
  6 40  1  0  0  0  0
  7  8  1  0  0  0  0
  7 41  1  0  0  0  0
  7 42  1  0  0  0  0
  8  9  1  0  0  0  0
  9 10  1  0  0  0  0
  9 14  2  0  0  0  0
 10 11  2  0  0  0  0
 10 43  1  0  0  0  0
 11 12  1  0  0  0  0
 11 44  1  0  0  0  0
 12 13  2  0  0  0  0
 12 15  1  0  0  0  0
 13 14  1  0  0  0  0
 13 45  1  0  0  0  0
 14 46  1  0  0  0  0
 15 16  1  0  0  0  0
 15 47  1  0  0  0  0
 15 48  1  0  0  0  0
 16 17  1  0  0  0  0
 16 49  1  0  0  0  0
 17 18  1  0  0  0  0
 17 22  2  0  0  0  0
 18 19  2  0  0  0  0
 18 50  1  0  0  0  0
 19 20  1  0  0  0  0
 19 51  1  0  0  0  0
 20 21  2  0  0  0  0
 20 27  1  0  0  0  0
 21 22  1  0  0  0  0
 21 26  1  0  0  0  0
 22 23  1  0  0  0  0
 23 24  2  0  0  0  0
 23 52  1  0  0  0  0
 24 25  1  0  0  0  0
 24 53  1  0  0  0  0
 25 26  2  0  0  0  0
 25 54  1  0  0  0  0
 26 55  1  0  0  0  0
M  CHG  1   3   1
M  END
$$$$
