
  -OEChem-12122420533D

 55 57  0     0  0  0  0  0  0999 V2000
   -3.1194   -6.8434  -10.0297 C   0  0  0  0  0  0  0  0  0  0  0  0
   -2.1373   -6.5584   -8.9024 C   0  0  0  0  0  0  0  0  0  0  0  0
   -1.4476   -7.8091   -8.3748 N   0  3  0  0  0  0  0  0  0  0  0  0
   -0.7229   -8.6200   -9.4473 C   0  0  0  0  0  0  0  0  0  0  0  0
    0.4022   -7.8642  -10.1381 C   0  0  0  0  0  0  0  0  0  0  0  0
   -0.5513   -7.5098   -7.1939 C   0  0  0  0  0  0  0  0  0  0  0  0
   -1.3367   -7.1264   -5.9382 C   0  0  0  0  0  0  0  0  0  0  0  0
   -0.3765   -7.1771   -4.9120 O   0  0  0  0  0  0  0  0  0  0  0  0
   -0.7620   -6.7550   -3.6413 C   0  0  0  0  0  0  0  0  0  0  0  0
    0.2600   -6.6933   -2.6918 C   0  0  0  0  0  0  0  0  0  0  0  0
   -0.0384   -6.2896   -1.3905 C   0  0  0  0  0  0  0  0  0  0  0  0
   -1.3442   -5.9386   -1.0208 C   0  0  0  0  0  0  0  0  0  0  0  0
   -2.3533   -6.0145   -1.9876 C   0  0  0  0  0  0  0  0  0  0  0  0
   -2.0750   -6.4217   -3.2968 C   0  0  0  0  0  0  0  0  0  0  0  0
   -1.6620   -5.4658    0.3814 C   0  0  0  0  0  0  0  0  0  0  0  0
   -2.8200   -6.1770    0.9092 N   0  0  0  0  0  0  0  0  0  0  0  0
   -3.3205   -5.8400    2.1802 C   0  0  0  0  0  0  0  0  0  0  0  0
   -2.8423   -4.7611    2.9057 C   0  0  0  0  0  0  0  0  0  0  0  0
   -3.3874   -4.4309    4.1686 C   0  0  0  0  0  0  0  0  0  0  0  0
   -4.3893   -5.1930    4.7173 C   0  0  0  0  0  0  0  0  0  0  0  0
   -4.9248   -6.3182    4.0202 C   0  0  0  0  0  0  0  0  0  0  0  0
   -4.3975   -6.6274    2.7214 C   0  0  0  0  0  0  0  0  0  0  0  0
   -4.9676   -7.7123    2.0018 C   0  0  0  0  0  0  0  0  0  0  0  0
   -5.9786   -8.4814    2.5423 C   0  0  0  0  0  0  0  0  0  0  0  0
   -6.4735   -8.1930    3.8350 C   0  0  0  0  0  0  0  0  0  0  0  0
   -5.9626   -7.1307    4.5513 C   0  0  0  0  0  0  0  0  0  0  0  0
   -5.0077   -4.7569    6.3053 Cl  0  0  0  0  0  0  0  0  0  0  0  0
   -3.6662   -5.9220  -10.2463 H   0  0  0  0  0  0  0  0  0  0  0  0
   -2.6264   -7.1551  -10.9526 H   0  0  0  0  0  0  0  0  0  0  0  0
   -3.8581   -7.6008   -9.7469 H   0  0  0  0  0  0  0  0  0  0  0  0
   -2.6516   -6.1180   -8.0478 H   0  0  0  0  0  0  0  0  0  0  0  0
   -1.3455   -5.8735   -9.2077 H   0  0  0  0  0  0  0  0  0  0  0  0
   -2.1926   -8.4236   -8.0285 H   0  0  0  0  0  0  0  0  0  0  0  0
   -0.3484   -9.5096   -8.9363 H   0  0  0  0  0  0  0  0  0  0  0  0
   -1.4850   -8.9393  -10.1586 H   0  0  0  0  0  0  0  0  0  0  0  0
    0.8612   -8.5402  -10.8644 H   0  0  0  0  0  0  0  0  0  0  0  0
    0.0443   -6.9915  -10.6892 H   0  0  0  0  0  0  0  0  0  0  0  0
    1.1857   -7.5525   -9.4440 H   0  0  0  0  0  0  0  0  0  0  0  0
    0.0245   -8.4127   -6.9835 H   0  0  0  0  0  0  0  0  0  0  0  0
    0.1350   -6.7149   -7.4846 H   0  0  0  0  0  0  0  0  0  0  0  0
   -1.7734   -6.1231   -6.0185 H   0  0  0  0  0  0  0  0  0  0  0  0
   -2.1540   -7.8458   -5.7605 H   0  0  0  0  0  0  0  0  0  0  0  0
    1.2713   -6.9644   -2.9796 H   0  0  0  0  0  0  0  0  0  0  0  0
    0.7604   -6.2473   -0.6544 H   0  0  0  0  0  0  0  0  0  0  0  0
   -3.3715   -5.7573   -1.7099 H   0  0  0  0  0  0  0  0  0  0  0  0
   -2.8865   -6.4725   -4.0157 H   0  0  0  0  0  0  0  0  0  0  0  0
   -0.7710   -5.5690    1.0206 H   0  0  0  0  0  0  0  0  0  0  0  0
   -1.9062   -4.3976    0.3517 H   0  0  0  0  0  0  0  0  0  0  0  0
   -2.7292   -7.1793    0.7800 H   0  0  0  0  0  0  0  0  0  0  0  0
   -2.0256   -4.1551    2.5311 H   0  0  0  0  0  0  0  0  0  0  0  0
   -2.9933   -3.5797    4.7145 H   0  0  0  0  0  0  0  0  0  0  0  0
   -4.6279   -7.9268    0.9933 H   0  0  0  0  0  0  0  0  0  0  0  0
   -6.4027   -9.3028    1.9708 H   0  0  0  0  0  0  0  0  0  0  0  0
   -7.2666   -8.8021    4.2599 H   0  0  0  0  0  0  0  0  0  0  0  0
   -6.3545   -6.9013    5.5358 H   0  0  0  0  0  0  0  0  0  0  0  0
  1  2  1  0  0  0  0
  1 28  1  0  0  0  0
  1 29  1  0  0  0  0
  1 30  1  0  0  0  0
  2  3  1  0  0  0  0
  2 31  1  0  0  0  0
  2 32  1  0  0  0  0
  3  4  1  0  0  0  0
  3  6  1  0  0  0  0
  3 33  1  0  0  0  0
  4  5  1  0  0  0  0
  4 34  1  0  0  0  0
  4 35  1  0  0  0  0
  5 36  1  0  0  0  0
  5 37  1  0  0  0  0
  5 38  1  0  0  0  0
  6  7  1  0  0  0  0
  6 39  1  0  0  0  0
  6 40  1  0  0  0  0
  7  8  1  0  0  0  0
  7 41  1  0  0  0  0
  7 42  1  0  0  0  0
  8  9  1  0  0  0  0
  9 10  1  0  0  0  0
  9 14  2  0  0  0  0
 10 11  2  0  0  0  0
 10 43  1  0  0  0  0
 11 12  1  0  0  0  0
 11 44  1  0  0  0  0
 12 13  2  0  0  0  0
 12 15  1  0  0  0  0
 13 14  1  0  0  0  0
 13 45  1  0  0  0  0
 14 46  1  0  0  0  0
 15 16  1  0  0  0  0
 15 47  1  0  0  0  0
 15 48  1  0  0  0  0
 16 17  1  0  0  0  0
 16 49  1  0  0  0  0
 17 18  1  0  0  0  0
 17 22  2  0  0  0  0
 18 19  2  0  0  0  0
 18 50  1  0  0  0  0
 19 20  1  0  0  0  0
 19 51  1  0  0  0  0
 20 21  2  0  0  0  0
 20 27  1  0  0  0  0
 21 22  1  0  0  0  0
 21 26  1  0  0  0  0
 22 23  1  0  0  0  0
 23 24  2  0  0  0  0
 23 52  1  0  0  0  0
 24 25  1  0  0  0  0
 24 53  1  0  0  0  0
 25 26  2  0  0  0  0
 25 54  1  0  0  0  0
 26 55  1  0  0  0  0
M  CHG  1   3   1
M  END
$$$$
