
  -OEChem-12122420533D

 28 29  0     0  0  0  0  0  0999 V2000
   -0.0610    5.8412   -8.2839 C   0  0  0  0  0  0  0  0  0  0  0  0
   -0.1791    7.1866   -8.6494 C   0  0  0  0  0  0  0  0  0  0  0  0
    1.0834    5.3995   -7.6096 C   0  0  0  0  0  0  0  0  0  0  0  0
    4.9902   12.3663   -6.2106 C   0  0  0  0  0  0  0  0  0  0  0  0
    5.4337   13.1470   -7.2843 C   0  0  0  0  0  0  0  0  0  0  0  0
    0.8531    8.0824   -8.3624 C   0  0  0  0  0  0  0  0  0  0  0  0
    2.1040    6.2999   -7.2992 C   0  0  0  0  0  0  0  0  0  0  0  0
    4.3609   11.1485   -6.4465 C   0  0  0  0  0  0  0  0  0  0  0  0
    5.2109   12.6544   -8.5674 C   0  0  0  0  0  0  0  0  0  0  0  0
    2.0035    7.6417   -7.6913 C   0  0  0  0  0  0  0  0  0  0  0  0
    4.1790   10.7447   -7.7873 C   0  0  0  0  0  0  0  0  0  0  0  0
    3.0801    8.5943   -7.2521 C   0  0  0  0  0  0  0  0  0  0  0  0
    3.3992    9.3087   -9.6189 C   0  0  0  0  0  0  0  0  0  0  0  0
    4.5985   11.4900   -8.8190 N   0  0  0  0  0  0  0  0  0  0  0  0
    3.4957    9.5592   -8.1689 N   0  0  0  0  0  0  0  0  0  0  0  0
    3.5195    8.5146   -6.1064 O   0  0  0  0  0  0  0  0  0  0  0  0
   -0.8602    5.1421   -8.5162 H   0  0  0  0  0  0  0  0  0  0  0  0
   -1.0743    7.5377   -9.1560 H   0  0  0  0  0  0  0  0  0  0  0  0
    1.1743    4.3566   -7.3174 H   0  0  0  0  0  0  0  0  0  0  0  0
    5.1386   12.6990   -5.1864 H   0  0  0  0  0  0  0  0  0  0  0  0
    5.9342   14.0987   -7.1335 H   0  0  0  0  0  0  0  0  0  0  0  0
    0.7584    9.1273   -8.6453 H   0  0  0  0  0  0  0  0  0  0  0  0
    2.9819    5.9776   -6.7471 H   0  0  0  0  0  0  0  0  0  0  0  0
    4.0354   10.5220   -5.6306 H   0  0  0  0  0  0  0  0  0  0  0  0
    5.5339   13.2162   -9.4429 H   0  0  0  0  0  0  0  0  0  0  0  0
    4.3904    9.3962  -10.0658 H   0  0  0  0  0  0  0  0  0  0  0  0
    2.7468   10.0385  -10.1046 H   0  0  0  0  0  0  0  0  0  0  0  0
    3.0163    8.3056   -9.7839 H   0  0  0  0  0  0  0  0  0  0  0  0
  1  2  1  0  0  0  0
  1  3  2  0  0  0  0
  1 17  1  0  0  0  0
  2  6  2  0  0  0  0
  2 18  1  0  0  0  0
  3  7  1  0  0  0  0
  3 19  1  0  0  0  0
  4  5  1  0  0  0  0
  4  8  2  0  0  0  0
  4 20  1  0  0  0  0
  5  9  2  0  0  0  0
  5 21  1  0  0  0  0
  6 10  1  0  0  0  0
  6 22  1  0  0  0  0
  7 10  2  0  0  0  0
  7 23  1  0  0  0  0
  8 11  1  0  0  0  0
  8 24  1  0  0  0  0
  9 14  1  0  0  0  0
  9 25  1  0  0  0  0
 10 12  1  0  0  0  0
 11 14  2  0  0  0  0
 11 15  1  0  0  0  0
 12 15  1  0  0  0  0
 12 16  2  0  0  0  0
 13 15  1  0  0  0  0
 13 26  1  0  0  0  0
 13 27  1  0  0  0  0
 13 28  1  0  0  0  0
M  END
$$$$
