28
0 1 C13H12N2O
C                     4.331254629830     1.351568984305     1.530823546877
C                     3.920272514730     0.062888769118     1.170829582231
C                     3.942119251908     1.888676248859     2.762903237492
C                     0.305551292445    -2.502134323223     7.962472152601
C                    -0.819322974447    -1.828645348893     8.452374227578
C                     3.126164056481    -0.686896478020     2.040413744646
C                     3.126076657573     1.149243041488     3.621818520576
C                     0.897612462012    -2.097026011661     6.770772577905
C                    -1.297308237936    -0.755621828350     7.704723337342
C                     2.708268733259    -0.140496464765     3.261484506654
C                     0.337094593454    -0.991630736727     6.094128252161
C                     1.936316951280    -1.017991662434     4.206719642019
C                     0.151520961764     0.716854168311     4.341544623569
N                    -0.738072766847    -0.341314204906     6.560341852181
N                     0.879666094259    -0.435011004465     4.905134810344
O                     2.283792250030    -2.188071628103     4.356479226854
H                     4.958196790411     1.931205004173     0.858223992435
H                     4.227731692107    -0.360063360946     0.218089682123
H                     4.274753294234     2.881355560812     3.054679263960
H                     0.721497888838    -3.349201185683     8.502138782734
H                    -1.308284145884    -2.124362502015     9.375607312254
H                     2.828269254469    -1.700269423550     1.788201731709
H                     2.826970309629     1.567571734387     4.579047023496
H                     1.749526704140    -2.620252756891     6.365227372345
H                    -2.169908128357    -0.192989240656     8.033880881190
H                     0.238765313090     1.595234028566     4.985700177965
H                    -0.906906136774     0.466861693933     4.258086143594
H                     0.547710795790     0.942640748838     3.355552635154
