
  -OEChem-12102412493D

 30 31  0     1  0  0  0  0  0999 V2000
    4.3330   -3.5611   -0.1768 C   0  0  0  0  0  0  0  0  0  0  0  0
    3.8256   -6.5166    8.4891 C   0  0  0  0  0  0  0  0  0  0  0  0
    4.4107   -2.3985    0.5939 C   0  0  0  0  0  0  0  0  0  0  0  0
    4.2754   -4.8092    0.4574 C   0  0  0  0  0  0  0  0  0  0  0  0
    4.8812   -5.8001    7.9200 C   0  0  0  0  0  0  0  0  0  0  0  0
    2.6149   -6.5787    7.7918 C   0  0  0  0  0  0  0  0  0  0  0  0
    4.4288   -2.4840    1.9916 C   0  0  0  0  0  0  0  0  0  0  0  0
    4.2980   -4.8900    1.8506 C   0  0  0  0  0  0  0  0  0  0  0  0
    4.7425   -5.1646    6.6840 C   0  0  0  0  0  0  0  0  0  0  0  0
    2.4631   -5.9526    6.5551 C   0  0  0  0  0  0  0  0  0  0  0  0
    4.3753   -3.7267    2.6316 C   0  0  0  0  0  0  0  0  0  0  0  0
    3.5307   -5.2401    5.9582 C   0  0  0  0  0  0  0  0  0  0  0  0
    2.0070   -4.3120    4.2844 C   0  0  0  0  0  0  0  0  0  0  0  0
    4.4346   -3.8284    4.1427 C   0  0  0  0  0  0  0  0  0  0  0  0
    3.3662   -4.6574    4.6955 N   0  0  1  0  0  0  0  0  0  0  0  0
    4.3146   -3.4978   -1.2618 H   0  0  0  0  0  0  0  0  0  0  0  0
    3.9391   -7.0043    9.4530 H   0  0  0  0  0  0  0  0  0  0  0  0
    4.4512   -1.4256    0.1107 H   0  0  0  0  0  0  0  0  0  0  0  0
    4.2141   -5.7177   -0.1365 H   0  0  0  0  0  0  0  0  0  0  0  0
    5.8292   -5.7184    8.4466 H   0  0  0  0  0  0  0  0  0  0  0  0
    1.7720   -7.1221    8.2123 H   0  0  0  0  0  0  0  0  0  0  0  0
    4.4801   -1.5751    2.5876 H   0  0  0  0  0  0  0  0  0  0  0  0
    4.2429   -5.8563    2.3462 H   0  0  0  0  0  0  0  0  0  0  0  0
    5.5847   -4.5982    6.3059 H   0  0  0  0  0  0  0  0  0  0  0  0
    1.5093   -6.0324    6.0470 H   0  0  0  0  0  0  0  0  0  0  0  0
    2.0468   -3.7116    3.3761 H   0  0  0  0  0  0  0  0  0  0  0  0
    1.4760   -3.7414    5.0603 H   0  0  0  0  0  0  0  0  0  0  0  0
    1.4213   -5.2076    4.0520 H   0  0  0  0  0  0  0  0  0  0  0  0
    5.3888   -4.2931    4.3994 H   0  0  0  0  0  0  0  0  0  0  0  0
    4.4424   -2.8182    4.5851 H   0  0  0  0  0  0  0  0  0  0  0  0
  1  3  1  0  0  0  0
  1  4  2  0  0  0  0
  1 16  1  0  0  0  0
  2  5  1  0  0  0  0
  2  6  2  0  0  0  0
  2 17  1  0  0  0  0
  3  7  2  0  0  0  0
  3 18  1  0  0  0  0
  4  8  1  0  0  0  0
  4 19  1  0  0  0  0
  5  9  2  0  0  0  0
  5 20  1  0  0  0  0
  6 10  1  0  0  0  0
  6 21  1  0  0  0  0
  7 11  1  0  0  0  0
  7 22  1  0  0  0  0
  8 11  2  0  0  0  0
  8 23  1  0  0  0  0
  9 12  1  0  0  0  0
  9 24  1  0  0  0  0
 10 12  2  0  0  0  0
 10 25  1  0  0  0  0
 11 14  1  0  0  0  0
 12 15  1  0  0  0  0
 13 15  1  0  0  0  0
 13 26  1  0  0  0  0
 13 27  1  0  0  0  0
 13 28  1  0  0  0  0
 14 15  1  0  0  0  0
 14 29  1  0  0  0  0
 14 30  1  0  0  0  0
M  END
$$$$
