20
0 1 C7ClH9N2O
C                     3.733844478808     2.975662327067    -4.549505827421
C                     3.118556139225     4.097423084588    -4.012532375909
C                     3.348921536695     1.877249566596    -3.737316045355
C                     2.497169503256     2.339002774240    -2.731881853382
C                     1.876486154384     1.801972796018    -1.497746774980
C                     1.031877806911    -0.032957225474    -0.173389019491
C                     1.023713359274    -0.254188510985    -2.627243198428
N                     2.386686255347     3.701745922735    -2.930607226832
N                     1.484894716858     0.489941085921    -1.458785658336
O                     1.749177711770     2.561393211848    -0.523911331204
Cl                    3.960079806902     0.262156464541    -3.937742067358
H                     4.389739496241     2.941651287513    -5.408517627137
H                     3.149744637498     5.130944690544    -4.328702222931
H                    -0.038129541117     0.158212740975    -0.015071141588
H                     1.588689111906     0.443987691495     0.632228095863
H                     1.205062664543    -1.113102042493    -0.152737910595
H                     1.565317095504    -1.199365849615    -2.730984490543
H                     1.161104913797     0.328881477388    -3.535501271848
H                    -0.047058946163    -0.472300905394    -2.518497683810
H                     1.922701999540     4.291898551191    -2.250058811549
