30
0 1 C14H15N
C                    -1.206204195038     1.594137769181     1.037660925350
C                     5.780544943968     0.139896372516     0.758327860686
C                     0.149316414796     1.922995655849     0.915676148352
C                    -1.735447542276     0.551058169738     0.272449929682
C                     5.408655663012     0.418543036128    -0.564117125566
C                     4.970049476204    -0.705444414426     1.516883182903
C                     0.968666774164     1.214424402078     0.034064348867
C                    -0.909926696168    -0.158453532481    -0.606955407214
C                     4.254663324852    -0.135187192767    -1.112322553878
C                     3.800865672141    -1.254854022524     0.978980808424
C                     0.446931499026     0.163721920247    -0.738537061640
C                     3.417830093467    -0.978892552248    -0.347676470759
C                     1.565253340234    -2.570527942944    -0.164465557105
C                     1.352303032473    -0.644206048485    -1.653236078981
N                     2.264849198168    -1.547484003425    -0.929900812783
H                    -1.843574422276     2.147959270562     1.722275956370
H                     6.684158460761     0.569543874904     1.181489317379
H                     0.566984668077     2.734293991278     1.506654293256
H                    -2.787101188393     0.289434184473     0.359722427945
H                     6.032219535113     1.061650062923    -1.180635574618
H                     5.236184522560    -0.935216090941     2.545956678688
H                     2.020676170244     1.472709369103    -0.050473403905
H                    -1.326211976560    -0.972404315760    -1.197765787067
H                     4.010572615735     0.071938313266    -2.149661189140
H                     3.181265951194    -1.883361161204     1.608080800208
H                     0.799417111109    -3.019970842927    -0.803408297926
H                     1.065942086985    -2.187606597754     0.739208613979
H                     2.265618595373    -3.358076429442     0.126328951473
H                     0.744103286215    -1.256862874468    -2.327188977680
H                     1.942803817199     0.022787852388    -2.281832479273
