22
0 1 C9H9N3S
C                     1.395963385626    -0.218589220118     1.495878229082
C                     0.102407702044    -0.413708589551     0.993528482623
C                     1.717079049862    -0.653730608556     2.776088179830
C                    -0.817559533726    -1.049510240284     1.824504949978
C                    -0.791575001186    -3.390111627127     7.438575770653
C                    -1.933019875626    -3.436215159711     6.695380033937
C                     0.708735790841    -1.289432562303     3.539928357809
C                    -0.001550901985    -2.383811336105     5.623990226322
C                     2.296425144119    -1.570258832761     5.398048914378
N                    -0.526985882549    -1.475016899248     3.058740116957
N                     0.294662587609    -2.797441570386     6.834097928805
N                     0.957607245633    -1.751121850632     4.828703666141
S                    -1.668060539321    -2.700330455962     5.134698155083
H                     2.154351868853     0.272148356882     0.891185467202
H                    -0.180544543150    -0.086000393290    -0.001615191725
H                     2.715756670167    -0.503044344465     3.164930430620
H                    -1.838897225998    -1.230379666491     1.492578608086
H                    -0.680236079018    -3.776871946601     8.446176324166
H                    -2.897262543097    -3.849557579799     6.962556352875
H                     2.547442280205    -0.505812814420     5.452644307123
H                     3.043666699907    -2.088534484881     4.788144693617
H                     2.298828719928    -1.989865478041     6.399615831670
