
  -OEChem-12122420533D

 26 26  0     0  0  0  0  0  0999 V2000
   -1.3299    0.5943   -5.0260 C   0  0  0  0  0  0  0  0  0  0  0  0
   -0.8003    0.7222   -3.7410 C   0  0  0  0  0  0  0  0  0  0  0  0
   -0.6157    1.1071   -6.1131 C   0  0  0  0  0  0  0  0  0  0  0  0
    0.4308    1.3561   -3.5373 C   0  0  0  0  0  0  0  0  0  0  0  0
    0.6276    1.7181   -5.9366 C   0  0  0  0  0  0  0  0  0  0  0  0
    1.1457    1.8560   -4.6338 C   0  0  0  0  0  0  0  0  0  0  0  0
    1.3102    2.3151   -7.1425 C   0  0  0  0  0  0  0  0  0  0  0  0
    3.2763    2.4582   -8.5779 C   0  0  0  0  0  0  0  0  0  0  0  0
    3.2242    0.7351   -6.8146 C   0  0  0  0  0  0  0  0  0  0  0  0
    2.8939    2.7092   -3.2324 C   0  0  0  0  0  0  0  0  0  0  0  0
    2.5449    1.8317   -7.4852 N   0  0  0  0  0  0  0  0  0  0  0  0
    0.7312    3.1876   -7.7968 O   0  0  0  0  0  0  0  0  0  0  0  0
    2.3530    2.4961   -4.5321 O   0  0  0  0  0  0  0  0  0  0  0  0
   -2.2906    0.1118   -5.1808 H   0  0  0  0  0  0  0  0  0  0  0  0
   -1.3458    0.3363   -2.8837 H   0  0  0  0  0  0  0  0  0  0  0  0
   -1.0219    1.0439   -7.1187 H   0  0  0  0  0  0  0  0  0  0  0  0
    0.8158    1.4586   -2.5292 H   0  0  0  0  0  0  0  0  0  0  0  0
    4.2545    2.8073   -8.2240 H   0  0  0  0  0  0  0  0  0  0  0  0
    2.6996    3.3035   -8.9498 H   0  0  0  0  0  0  0  0  0  0  0  0
    3.4371    1.7437   -9.3951 H   0  0  0  0  0  0  0  0  0  0  0  0
    3.6079    0.0327   -7.5644 H   0  0  0  0  0  0  0  0  0  0  0  0
    2.5373    0.1959   -6.1640 H   0  0  0  0  0  0  0  0  0  0  0  0
    4.0660    1.0987   -6.2126 H   0  0  0  0  0  0  0  0  0  0  0  0
    3.8299    3.2480   -3.3853 H   0  0  0  0  0  0  0  0  0  0  0  0
    3.1000    1.7598   -2.7227 H   0  0  0  0  0  0  0  0  0  0  0  0
    2.2215    3.3178   -2.6159 H   0  0  0  0  0  0  0  0  0  0  0  0
  1  2  1  0  0  0  0
  1  3  2  0  0  0  0
  1 14  1  0  0  0  0
  2  4  2  0  0  0  0
  2 15  1  0  0  0  0
  3  5  1  0  0  0  0
  3 16  1  0  0  0  0
  4  6  1  0  0  0  0
  4 17  1  0  0  0  0
  5  6  2  0  0  0  0
  5  7  1  0  0  0  0
  6 13  1  0  0  0  0
  7 11  1  0  0  0  0
  7 12  2  0  0  0  0
  8 11  1  0  0  0  0
  8 18  1  0  0  0  0
  8 19  1  0  0  0  0
  8 20  1  0  0  0  0
  9 11  1  0  0  0  0
  9 21  1  0  0  0  0
  9 22  1  0  0  0  0
  9 23  1  0  0  0  0
 10 13  1  0  0  0  0
 10 24  1  0  0  0  0
 10 25  1  0  0  0  0
 10 26  1  0  0  0  0
M  END
$$$$
