
  -OEChem-12122420533D

 29 30  0     0  0  0  0  0  0999 V2000
    8.5641    5.7476   -7.5982 C   0  0  0  0  0  0  0  0  0  0  0  0
    9.3859    4.6511   -7.8642 C   0  0  0  0  0  0  0  0  0  0  0  0
    5.4402    3.8523   -2.7373 C   0  0  0  0  0  0  0  0  0  0  0  0
    4.2750    4.5725   -3.0202 C   0  0  0  0  0  0  0  0  0  0  0  0
    7.5243    5.6094   -6.6775 C   0  0  0  0  0  0  0  0  0  0  0  0
    9.1422    3.4254   -7.2395 C   0  0  0  0  0  0  0  0  0  0  0  0
    6.4313    3.7617   -3.7110 C   0  0  0  0  0  0  0  0  0  0  0  0
    4.1722    5.1790   -4.2738 C   0  0  0  0  0  0  0  0  0  0  0  0
    7.2914    4.4017   -6.0044 C   0  0  0  0  0  0  0  0  0  0  0  0
    8.0925    3.2714   -6.3171 C   0  0  0  0  0  0  0  0  0  0  0  0
    6.2368    4.3999   -4.9504 C   0  0  0  0  0  0  0  0  0  0  0  0
    8.8931    1.0278   -5.7294 C   0  0  0  0  0  0  0  0  0  0  0  0
    6.5293    1.4190   -6.0396 C   0  0  0  0  0  0  0  0  0  0  0  0
    5.1194    5.1041   -5.2175 N   0  0  0  0  0  0  0  0  0  0  0  0
    7.8255    2.0176   -5.7030 N   0  0  0  0  0  0  0  0  0  0  0  0
    8.7357    6.7009   -8.0905 H   0  0  0  0  0  0  0  0  0  0  0  0
   10.2067    4.7375   -8.5721 H   0  0  0  0  0  0  0  0  0  0  0  0
    5.5755    3.3725   -1.7709 H   0  0  0  0  0  0  0  0  0  0  0  0
    3.4722    4.6664   -2.2944 H   0  0  0  0  0  0  0  0  0  0  0  0
    6.8827    6.4529   -6.4425 H   0  0  0  0  0  0  0  0  0  0  0  0
    9.7644    2.5747   -7.4945 H   0  0  0  0  0  0  0  0  0  0  0  0
    7.3432    3.2035   -3.5350 H   0  0  0  0  0  0  0  0  0  0  0  0
    3.2846    5.7538   -4.5361 H   0  0  0  0  0  0  0  0  0  0  0  0
    8.6339    0.2168   -5.0411 H   0  0  0  0  0  0  0  0  0  0  0  0
    9.8310    1.4752   -5.3905 H   0  0  0  0  0  0  0  0  0  0  0  0
    9.0567    0.5787   -6.7250 H   0  0  0  0  0  0  0  0  0  0  0  0
    6.2810    0.6470   -5.3035 H   0  0  0  0  0  0  0  0  0  0  0  0
    6.5435    0.9566   -7.0412 H   0  0  0  0  0  0  0  0  0  0  0  0
    5.7394    2.1686   -6.0223 H   0  0  0  0  0  0  0  0  0  0  0  0
  1  2  1  0  0  0  0
  1  5  2  0  0  0  0
  1 16  1  0  0  0  0
  2  6  2  0  0  0  0
  2 17  1  0  0  0  0
  3  4  1  0  0  0  0
  3  7  2  0  0  0  0
  3 18  1  0  0  0  0
  4  8  2  0  0  0  0
  4 19  1  0  0  0  0
  5  9  1  0  0  0  0
  5 20  1  0  0  0  0
  6 10  1  0  0  0  0
  6 21  1  0  0  0  0
  7 11  1  0  0  0  0
  7 22  1  0  0  0  0
  8 14  1  0  0  0  0
  8 23  1  0  0  0  0
  9 10  2  0  0  0  0
  9 11  1  0  0  0  0
 10 15  1  0  0  0  0
 11 14  2  0  0  0  0
 12 15  1  0  0  0  0
 12 24  1  0  0  0  0
 12 25  1  0  0  0  0
 12 26  1  0  0  0  0
 13 15  1  0  0  0  0
 13 27  1  0  0  0  0
 13 28  1  0  0  0  0
 13 29  1  0  0  0  0
M  END
$$$$
