32
0 1 C15H15NO
C                     6.635226735283    -5.890513657001     9.843565069776
C                     5.255506528807    -5.686648956815     9.966616742115
C                     7.121698921710    -7.120498335038     9.384729491266
C                     0.166265786225    -9.181653476795     8.650626024467
C                    -0.192250694482    -8.880110627636     9.968322687731
C                     4.365759174759    -6.713640320195     9.648336361748
C                     6.230325972314    -8.140279510754     9.048747709860
C                     1.518960716757    -9.285500038133     8.328985273560
C                     0.783561718311    -8.723540722604    10.953513311346
C                     4.847244892580    -7.948389080117     9.186682242536
C                     2.516219014990    -9.072281045935     9.290847738979
C                     2.154379804118    -8.837307763819    10.644403693750
C                     3.928337948020    -9.062355216077     8.785197397839
C                     4.174742553283    -9.729080818812    11.765062413271
C                     2.790845037781    -8.079143858109    12.893825767529
N                     3.138979871257    -8.706179339090    11.631669115372
O                     4.310909221317    -9.923101314725     7.993237616028
H                     7.327771179882    -5.092647775967    10.100251815789
H                     4.875919084713    -4.728207685564    10.311340652752
H                     8.192424828889    -7.279505556218     9.285511441902
H                    -0.593380244308    -9.322914184579     7.887343593977
H                    -1.240999607513    -8.790768834810    10.241332301691
H                     3.296434677004    -6.555543723035     9.745202154909
H                     6.586892101618    -9.095507099388     8.675134962231
H                     1.830999795889    -9.497452725141     7.310443626667
H                     0.474587316076    -8.545626571198    11.977713090312
H                     5.153486385568    -9.266276723437    11.934519402665
H                     4.237268904805   -10.341231534419    10.866742372536
H                     3.951631577402   -10.401132664257    12.608823680324
H                     3.713659421573    -7.788744046936    13.405623359238
H                     2.224725315147    -8.742366842178    13.570378270442
H                     2.204716796721    -7.173044653080    12.719909957416
