
  -OEChem-12102412493D

 21 21  0     0  0  0  0  0  0999 V2000
   -3.5162    0.0533   -1.7666 C   0  0  0  0  0  0  0  0  0  0  0  0
   -3.9925   -0.3462   -3.0128 C   0  0  0  0  0  0  0  0  0  0  0  0
   -3.0124    1.3669   -1.9299 C   0  0  0  0  0  0  0  0  0  0  0  0
   -3.1711    1.7331   -3.2734 C   0  0  0  0  0  0  0  0  0  0  0  0
   -2.9669    2.9995   -3.9501 C   0  0  0  0  0  0  0  0  0  0  0  0
   -2.1470    5.2697   -3.7881 C   0  0  0  0  0  0  0  0  0  0  0  0
   -0.6918    3.4237   -3.1289 C   0  0  0  0  0  0  0  0  0  0  0  0
   -3.7903    0.6621   -3.9054 N   0  0  0  0  0  0  0  0  0  0  0  0
   -2.0831    3.8921   -3.2871 N   0  0  0  0  0  0  0  0  0  0  0  0
   -3.5697    3.3076   -4.9820 O   0  0  0  0  0  0  0  0  0  0  0  0
   -2.5007    2.1370   -0.9308 O   0  0  0  0  0  0  0  0  0  0  0  0
   -3.5411   -0.5196   -0.8497 H   0  0  0  0  0  0  0  0  0  0  0  0
   -4.4532   -1.2784   -3.3103 H   0  0  0  0  0  0  0  0  0  0  0  0
   -1.6073    5.9171   -3.0911 H   0  0  0  0  0  0  0  0  0  0  0  0
   -3.1875    5.5904   -3.8466 H   0  0  0  0  0  0  0  0  0  0  0  0
   -1.7016    5.3665   -4.7870 H   0  0  0  0  0  0  0  0  0  0  0  0
   -0.1376    3.5195   -4.0739 H   0  0  0  0  0  0  0  0  0  0  0  0
   -0.6678    2.3806   -2.8152 H   0  0  0  0  0  0  0  0  0  0  0  0
   -0.1880    4.0283   -2.3690 H   0  0  0  0  0  0  0  0  0  0  0  0
   -4.1017    0.7033   -4.8668 H   0  0  0  0  0  0  0  0  0  0  0  0
   -2.4047    3.0413   -1.2926 H   0  0  0  0  0  0  0  0  0  0  0  0
  1  2  2  0  0  0  0
  1  3  1  0  0  0  0
  1 12  1  0  0  0  0
  2  8  1  0  0  0  0
  2 13  1  0  0  0  0
  3  4  2  0  0  0  0
  3 11  1  0  0  0  0
  4  5  1  0  0  0  0
  4  8  1  0  0  0  0
  5  9  1  0  0  0  0
  5 10  2  0  0  0  0
  6  9  1  0  0  0  0
  6 14  1  0  0  0  0
  6 15  1  0  0  0  0
  6 16  1  0  0  0  0
  7  9  1  0  0  0  0
  7 17  1  0  0  0  0
  7 18  1  0  0  0  0
  7 19  1  0  0  0  0
  8 20  1  0  0  0  0
 11 21  1  0  0  0  0
M  END
$$$$
