20
0 1 C7H9N3O
C                     1.444540467121    -0.164029837882     1.463986994057
C                     0.291495673674    -0.642338185226     0.830946859889
C                     1.749029933742    -0.598341635207     2.750541869521
C                    -0.513383244762    -1.532633565776     1.541410620703
C                     0.891128416607    -1.534474938424     3.364525559734
C                     2.357476901009    -2.351273425361     5.211321586409
C                    -0.069705243646    -2.345368289242     5.482056473919
N                    -0.227786637546    -1.976456265108     2.772774932521
N                     3.447936212673    -2.311038399251     4.347532258416
N                     1.113010960512    -2.003104227118     4.677644422076
O                     2.495029314821    -2.659998140621     6.392051640326
H                     2.088932039844     0.559862498458     0.971615550669
H                     0.014458174458    -0.322674228707    -0.168884758326
H                     2.612049102514    -0.215060079090     3.281691360698
H                    -1.435159144737    -1.914083761277     1.104394092818
H                    -0.470256556243    -3.323094286204     5.199884495230
H                    -0.842310993406    -1.593177884055     5.317465501815
H                     0.229809211054    -2.356698227327     6.527880015953
H                     3.288564488939    -2.524460981797     3.369488691626
H                     4.245345270895    -2.787100876178     4.753167709857
