
  -OEChem-12122420533D

 22 23  0     0  0  0  0  0  0999 V2000
   -4.7926   -6.4824    1.2316 C   0  0  0  0  0  0  0  0  0  0  0  0
   -4.1669   -6.0752    0.0466 C   0  0  0  0  0  0  0  0  0  0  0  0
   -4.1111   -6.3713    2.4381 C   0  0  0  0  0  0  0  0  0  0  0  0
   -2.8631   -5.5898    0.1393 C   0  0  0  0  0  0  0  0  0  0  0  0
   -2.6782   -4.8340    6.9877 C   0  0  0  0  0  0  0  0  0  0  0  0
   -3.9080   -4.3366    6.6732 C   0  0  0  0  0  0  0  0  0  0  0  0
   -2.8125   -5.8210    2.4271 C   0  0  0  0  0  0  0  0  0  0  0  0
   -2.6105   -5.2999    4.8191 C   0  0  0  0  0  0  0  0  0  0  0  0
   -0.5932   -5.6222    3.4894 C   0  0  0  0  0  0  0  0  0  0  0  0
   -2.1968   -5.4561    1.2940 N   0  0  0  0  0  0  0  0  0  0  0  0
   -1.9519   -5.3732    5.9483 N   0  0  0  0  0  0  0  0  0  0  0  0
   -2.0599   -5.6808    3.6058 N   0  0  0  0  0  0  0  0  0  0  0  0
   -4.2020   -4.5218    4.9648 S   0  0  0  0  0  0  0  0  0  0  0  0
   -5.7936   -6.9055    1.2140 H   0  0  0  0  0  0  0  0  0  0  0  0
   -4.6630   -6.1496   -0.9160 H   0  0  0  0  0  0  0  0  0  0  0  0
   -4.5553   -6.7308    3.3587 H   0  0  0  0  0  0  0  0  0  0  0  0
   -2.3209   -5.2870   -0.7554 H   0  0  0  0  0  0  0  0  0  0  0  0
   -2.2525   -4.8460    7.9855 H   0  0  0  0  0  0  0  0  0  0  0  0
   -4.6592   -3.9117    7.3256 H   0  0  0  0  0  0  0  0  0  0  0  0
   -0.2628   -4.6162    3.2111 H   0  0  0  0  0  0  0  0  0  0  0  0
   -0.2732   -6.3204    2.7168 H   0  0  0  0  0  0  0  0  0  0  0  0
   -0.1660   -5.8991    4.4509 H   0  0  0  0  0  0  0  0  0  0  0  0
  1  2  1  0  0  0  0
  1  3  2  0  0  0  0
  1 14  1  0  0  0  0
  2  4  2  0  0  0  0
  2 15  1  0  0  0  0
  3  7  1  0  0  0  0
  3 16  1  0  0  0  0
  4 10  1  0  0  0  0
  4 17  1  0  0  0  0
  5  6  2  0  0  0  0
  5 11  1  0  0  0  0
  5 18  1  0  0  0  0
  6 13  1  0  0  0  0
  6 19  1  0  0  0  0
  7 10  2  0  0  0  0
  7 12  1  0  0  0  0
  8 11  2  0  0  0  0
  8 12  1  0  0  0  0
  8 13  1  0  0  0  0
  9 12  1  0  0  0  0
  9 20  1  0  0  0  0
  9 21  1  0  0  0  0
  9 22  1  0  0  0  0
M  END
$$$$
