
  -OEChem-12102412493D

 22 23  0     0  0  0  0  0  0999 V2000
    1.3960   -0.2186    1.4959 C   0  0  0  0  0  0  0  0  0  0  0  0
    0.1024   -0.4137    0.9935 C   0  0  0  0  0  0  0  0  0  0  0  0
    1.7171   -0.6537    2.7761 C   0  0  0  0  0  0  0  0  0  0  0  0
   -0.8176   -1.0495    1.8245 C   0  0  0  0  0  0  0  0  0  0  0  0
   -0.7916   -3.3901    7.4386 C   0  0  0  0  0  0  0  0  0  0  0  0
   -1.9330   -3.4362    6.6954 C   0  0  0  0  0  0  0  0  0  0  0  0
    0.7087   -1.2894    3.5399 C   0  0  0  0  0  0  0  0  0  0  0  0
   -0.0016   -2.3838    5.6240 C   0  0  0  0  0  0  0  0  0  0  0  0
    2.2964   -1.5703    5.3980 C   0  0  0  0  0  0  0  0  0  0  0  0
   -0.5270   -1.4750    3.0587 N   0  0  0  0  0  0  0  0  0  0  0  0
    0.2947   -2.7974    6.8341 N   0  0  0  0  0  0  0  0  0  0  0  0
    0.9576   -1.7511    4.8287 N   0  0  0  0  0  0  0  0  0  0  0  0
   -1.6681   -2.7003    5.1347 S   0  0  0  0  0  0  0  0  0  0  0  0
    2.1544    0.2721    0.8912 H   0  0  0  0  0  0  0  0  0  0  0  0
   -0.1805   -0.0860   -0.0016 H   0  0  0  0  0  0  0  0  0  0  0  0
    2.7158   -0.5030    3.1649 H   0  0  0  0  0  0  0  0  0  0  0  0
   -1.8389   -1.2304    1.4926 H   0  0  0  0  0  0  0  0  0  0  0  0
   -0.6802   -3.7769    8.4462 H   0  0  0  0  0  0  0  0  0  0  0  0
   -2.8973   -3.8496    6.9626 H   0  0  0  0  0  0  0  0  0  0  0  0
    2.5474   -0.5058    5.4526 H   0  0  0  0  0  0  0  0  0  0  0  0
    3.0437   -2.0885    4.7881 H   0  0  0  0  0  0  0  0  0  0  0  0
    2.2988   -1.9899    6.3996 H   0  0  0  0  0  0  0  0  0  0  0  0
  1  2  1  0  0  0  0
  1  3  2  0  0  0  0
  1 14  1  0  0  0  0
  2  4  2  0  0  0  0
  2 15  1  0  0  0  0
  3  7  1  0  0  0  0
  3 16  1  0  0  0  0
  4 10  1  0  0  0  0
  4 17  1  0  0  0  0
  5  6  2  0  0  0  0
  5 11  1  0  0  0  0
  5 18  1  0  0  0  0
  6 13  1  0  0  0  0
  6 19  1  0  0  0  0
  7 10  2  0  0  0  0
  7 12  1  0  0  0  0
  8 11  2  0  0  0  0
  8 12  1  0  0  0  0
  8 13  1  0  0  0  0
  9 12  1  0  0  0  0
  9 20  1  0  0  0  0
  9 21  1  0  0  0  0
  9 22  1  0  0  0  0
M  END
$$$$
