
  -OEChem-12102412493D

 28 29  0     0  0  0  0  0  0999 V2000
   -1.2033   11.3447    3.5218 C   0  0  0  0  0  0  0  0  0  0  0  0
   -2.5999   11.3410    3.4267 C   0  0  0  0  0  0  0  0  0  0  0  0
   -0.5333   12.5206    3.8764 C   0  0  0  0  0  0  0  0  0  0  0  0
   -0.2266   17.4200    1.8427 C   0  0  0  0  0  0  0  0  0  0  0  0
   -0.5079   16.6731    0.6935 C   0  0  0  0  0  0  0  0  0  0  0  0
   -3.3218   12.5075    3.6824 C   0  0  0  0  0  0  0  0  0  0  0  0
   -1.2543   13.6926    4.1146 C   0  0  0  0  0  0  0  0  0  0  0  0
   -1.0284   17.2527    2.9691 C   0  0  0  0  0  0  0  0  0  0  0  0
   -1.5964   15.7996    0.7299 C   0  0  0  0  0  0  0  0  0  0  0  0
   -2.6525   13.6938    4.0102 C   0  0  0  0  0  0  0  0  0  0  0  0
   -2.1018   16.3498    2.8989 C   0  0  0  0  0  0  0  0  0  0  0  0
   -3.4800   14.9029    4.3224 C   0  0  0  0  0  0  0  0  0  0  0  0
   -3.6978   17.3143    4.5212 C   0  0  0  0  0  0  0  0  0  0  0  0
   -2.3916   15.6492    1.7974 N   0  0  0  0  0  0  0  0  0  0  0  0
   -2.9392   16.1553    4.0309 N   0  0  0  0  0  0  0  0  0  0  0  0
   -4.5624   14.8055    4.8964 O   0  0  0  0  0  0  0  0  0  0  0  0
   -0.6410   10.4346    3.3284 H   0  0  0  0  0  0  0  0  0  0  0  0
   -3.1245   10.4274    3.1589 H   0  0  0  0  0  0  0  0  0  0  0  0
    0.5497   12.5240    3.9691 H   0  0  0  0  0  0  0  0  0  0  0  0
    0.6151   18.1072    1.8671 H   0  0  0  0  0  0  0  0  0  0  0  0
    0.0958   16.7635   -0.2045 H   0  0  0  0  0  0  0  0  0  0  0  0
   -4.4061   12.5163    3.6307 H   0  0  0  0  0  0  0  0  0  0  0  0
   -0.7284   14.6002    4.3948 H   0  0  0  0  0  0  0  0  0  0  0  0
   -0.8192   17.7839    3.8926 H   0  0  0  0  0  0  0  0  0  0  0  0
   -1.8540   15.1990   -0.1409 H   0  0  0  0  0  0  0  0  0  0  0  0
   -4.6145   17.4586    3.9382 H   0  0  0  0  0  0  0  0  0  0  0  0
   -3.0782   18.2083    4.4426 H   0  0  0  0  0  0  0  0  0  0  0  0
   -3.9740   17.1499    5.5628 H   0  0  0  0  0  0  0  0  0  0  0  0
  1  2  1  0  0  0  0
  1  3  2  0  0  0  0
  1 17  1  0  0  0  0
  2  6  2  0  0  0  0
  2 18  1  0  0  0  0
  3  7  1  0  0  0  0
  3 19  1  0  0  0  0
  4  5  1  0  0  0  0
  4  8  2  0  0  0  0
  4 20  1  0  0  0  0
  5  9  2  0  0  0  0
  5 21  1  0  0  0  0
  6 10  1  0  0  0  0
  6 22  1  0  0  0  0
  7 10  2  0  0  0  0
  7 23  1  0  0  0  0
  8 11  1  0  0  0  0
  8 24  1  0  0  0  0
  9 14  1  0  0  0  0
  9 25  1  0  0  0  0
 10 12  1  0  0  0  0
 11 14  2  0  0  0  0
 11 15  1  0  0  0  0
 12 15  1  0  0  0  0
 12 16  2  0  0  0  0
 13 15  1  0  0  0  0
 13 26  1  0  0  0  0
 13 27  1  0  0  0  0
 13 28  1  0  0  0  0
M  END
$$$$
