
  -OEChem-12122420533D

 21 21  0     0  0  0  0  0  0999 V2000
    3.3411    3.8341   -4.1702 C   0  0  0  0  0  0  0  0  0  0  0  0
    3.6716    2.5368   -4.5375 C   0  0  0  0  0  0  0  0  0  0  0  0
    2.6612    3.7504   -2.9216 C   0  0  0  0  0  0  0  0  0  0  0  0
    2.5713    2.4075   -2.5607 C   0  0  0  0  0  0  0  0  0  0  0  0
    2.0273    1.7741   -1.3498 C   0  0  0  0  0  0  0  0  0  0  0  0
    1.1991   -0.2277   -0.2699 C   0  0  0  0  0  0  0  0  0  0  0  0
    0.6928    0.1136   -2.6401 C   0  0  0  0  0  0  0  0  0  0  0  0
    3.1877    1.6868   -3.5854 N   0  0  0  0  0  0  0  0  0  0  0  0
    1.5534    0.4648   -1.5073 N   0  0  0  0  0  0  0  0  0  0  0  0
    2.0649    2.3223   -0.2488 O   0  0  0  0  0  0  0  0  0  0  0  0
    2.1321    4.7758   -2.1934 O   0  0  0  0  0  0  0  0  0  0  0  0
    3.5608    4.7320   -4.7351 H   0  0  0  0  0  0  0  0  0  0  0  0
    4.2195    2.1727   -5.3958 H   0  0  0  0  0  0  0  0  0  0  0  0
    0.2282    0.1056    0.1223 H   0  0  0  0  0  0  0  0  0  0  0  0
    1.9560   -0.0318    0.4894 H   0  0  0  0  0  0  0  0  0  0  0  0
    1.1504   -1.3025   -0.4704 H   0  0  0  0  0  0  0  0  0  0  0  0
    0.8737   -0.9228   -2.9479 H   0  0  0  0  0  0  0  0  0  0  0  0
    0.8792    0.7699   -3.4890 H   0  0  0  0  0  0  0  0  0  0  0  0
   -0.3676    0.2073   -2.3637 H   0  0  0  0  0  0  0  0  0  0  0  0
    3.4039    0.7025   -3.5114 H   0  0  0  0  0  0  0  0  0  0  0  0
    2.2920    5.6035   -2.6717 H   0  0  0  0  0  0  0  0  0  0  0  0
  1  2  2  0  0  0  0
  1  3  1  0  0  0  0
  1 12  1  0  0  0  0
  2  8  1  0  0  0  0
  2 13  1  0  0  0  0
  3  4  2  0  0  0  0
  3 11  1  0  0  0  0
  4  5  1  0  0  0  0
  4  8  1  0  0  0  0
  5  9  1  0  0  0  0
  5 10  2  0  0  0  0
  6  9  1  0  0  0  0
  6 14  1  0  0  0  0
  6 15  1  0  0  0  0
  6 16  1  0  0  0  0
  7  9  1  0  0  0  0
  7 17  1  0  0  0  0
  7 18  1  0  0  0  0
  7 19  1  0  0  0  0
  8 20  1  0  0  0  0
 11 21  1  0  0  0  0
M  END
$$$$
