26
0 1 C10H13NO2
C                     1.555148018757    -1.400685625468    -0.334144700385
C                     0.545289254415    -0.746855542180     0.373333765404
C                     2.669402593340    -1.885921828559     0.357339119623
C                     0.641367944102    -0.576512710135     1.759291791129
C                     2.799562586731    -1.702583277363     1.735515467462
C                     1.767143304531    -1.055127514585     2.442339722049
C                     3.989437738325    -2.315186672323     2.432356502923
C                     5.948449041671    -2.040424576903     3.858491234138
C                     4.734856511460    -0.025605705159     3.115949565746
C                     0.907115219982    -0.344006150543     4.564218345614
N                     4.853839409019    -1.474345923712     3.081976203609
O                     4.167629041003    -3.535192412277     2.368512881154
O                     1.946704673466    -0.941164905348     3.796028156335
H                     1.473713445818    -1.541376171266    -1.408037420955
H                    -0.331462973159    -0.370161009353    -0.147169204179
H                     3.453928419611    -2.422346560347    -0.168944100258
H                    -0.162059700543    -0.079767537724     2.291087196009
H                     6.913989600919    -1.688080456223     3.474749939444
H                     5.907360278091    -3.126009610821     3.786303651947
H                     5.861544242194    -1.739175574558     4.910360795140
H                     4.380538771455     0.321723672975     4.094271088159
H                     4.042685665971     0.322416715201     2.350484215761
H                     5.715948392989     0.422906679033     2.919433946368
H                     1.245765324554    -0.379824557818     5.600489233558
H                    -0.030546246476    -0.904611894269     4.469293489793
H                     0.741232531598     0.700365720815     4.271866214499
