20
0 1 C8H11N
C                     1.885721598486    -1.035760687029    -0.136325712244
C                     2.913730432057    -1.629997743326     0.602549493633
C                     0.813878323044    -0.463458549999     0.556086173464
C                     2.880326702729    -1.656293585528     1.996999093763
C                     0.762807568028    -0.479952707316     1.950149712360
C                     1.799372763170    -1.078856730896     2.707375625005
C                     0.632662878442    -0.506950529547     4.793890187556
C                     2.829357708491    -1.728828244468     4.842288946914
N                     1.757586602236    -1.098829857949     4.093192863133
H                     1.918832772194    -1.019345763415    -1.221901115137
H                     3.759150018778    -2.082840934978     0.089564179550
H                     0.000532733282     0.005145518109     0.006679269461
H                     3.698037808683    -2.127409488518     2.529996154253
H                    -0.086548927803    -0.025123884017     2.446546707333
H                     0.776844617970    -0.619048598757     5.869332921093
H                    -0.317632910883    -0.992711274257     4.530304859878
H                     0.535215905826     0.566549139358     4.579213523813
H                     2.621138250285    -1.646851211969     5.909927253238
H                     3.799444090482    -1.248308592563     4.652420063182
H                     2.927275400111    -2.796749470096     4.600578900233
