
  -OEChem-12122420533D

 22 22  0     0  0  0  0  0  0999 V2000
    2.9179    3.2388   -4.6658 C   0  0  0  0  0  0  0  0  0  0  0  0
    4.0617    3.5344   -3.9435 C   0  0  0  0  0  0  0  0  0  0  0  0
    2.1046    2.3974   -3.8464 C   0  0  0  0  0  0  0  0  0  0  0  0
    2.8031    2.1742   -2.6498 C   0  0  0  0  0  0  0  0  0  0  0  0
    2.3721    1.3404   -1.5421 C   0  0  0  0  0  0  0  0  0  0  0  0
    2.7696    0.3222    0.6157 C   0  0  0  0  0  0  0  0  0  0  0  0
    4.6292    0.4611   -0.9619 C   0  0  0  0  0  0  0  0  0  0  0  0
    4.0140    2.8763   -2.7448 N   0  0  0  0  0  0  0  0  0  0  0  0
    0.8299    1.9366   -4.1423 N   0  0  0  0  0  0  0  0  0  0  0  0
    3.3134    0.9752   -0.5733 N   0  0  0  0  0  0  0  0  0  0  0  0
    1.1783    1.0054   -1.4320 O   0  0  0  0  0  0  0  0  0  0  0  0
    2.6806    3.5988   -5.6588 H   0  0  0  0  0  0  0  0  0  0  0  0
    4.8937    4.1787   -4.1952 H   0  0  0  0  0  0  0  0  0  0  0  0
    2.5227   -0.7328    0.4301 H   0  0  0  0  0  0  0  0  0  0  0  0
    1.8605    0.8326    0.9326 H   0  0  0  0  0  0  0  0  0  0  0  0
    3.5159    0.3753    1.4147 H   0  0  0  0  0  0  0  0  0  0  0  0
    5.3965    0.7954   -0.2534 H   0  0  0  0  0  0  0  0  0  0  0  0
    4.9018    0.7949   -1.9615 H   0  0  0  0  0  0  0  0  0  0  0  0
    4.6255   -0.6389   -0.9638 H   0  0  0  0  0  0  0  0  0  0  0  0
    4.5750    3.1221   -1.9411 H   0  0  0  0  0  0  0  0  0  0  0  0
    0.4674    1.3020   -3.4349 H   0  0  0  0  0  0  0  0  0  0  0  0
    0.6941    1.6209   -5.0950 H   0  0  0  0  0  0  0  0  0  0  0  0
  1  2  2  0  0  0  0
  1  3  1  0  0  0  0
  1 12  1  0  0  0  0
  2  8  1  0  0  0  0
  2 13  1  0  0  0  0
  3  4  2  0  0  0  0
  3  9  1  0  0  0  0
  4  5  1  0  0  0  0
  4  8  1  0  0  0  0
  5 10  1  0  0  0  0
  5 11  2  0  0  0  0
  6 10  1  0  0  0  0
  6 14  1  0  0  0  0
  6 15  1  0  0  0  0
  6 16  1  0  0  0  0
  7 10  1  0  0  0  0
  7 17  1  0  0  0  0
  7 18  1  0  0  0  0
  7 19  1  0  0  0  0
  8 20  1  0  0  0  0
  9 21  1  0  0  0  0
  9 22  1  0  0  0  0
M  END
$$$$
