28
0 1 C13H12N2O
C                    -9.225558876039     2.976604802263     0.534176051440
C                    -8.041368648760     2.579403975176     1.165952039461
C                    -9.740332872596     2.217037306919    -0.522471275969
C                    -6.790249109188     2.125073435722    -4.139706656225
C                    -7.507463070376     1.696929479251    -5.261498592867
C                    -7.374256212193     1.429119703442     0.740541383827
C                    -9.062437720096     1.078959814617    -0.963331551316
C                    -6.632022720733     1.255874815947    -3.064013844121
C                    -8.025299119112     0.400332683032    -5.248690419410
C                    -7.869522090878     0.684858087405    -0.338840020982
C                    -7.232657196126    -0.012896344963    -3.133589047760
C                    -7.140504297537    -0.570191989984    -0.722401723514
C                    -6.700979247420    -2.306637449352    -2.376713000627
N                    -7.901979852441    -0.438156804230    -4.211436066203
N                    -7.122576763201    -0.934777291906    -2.060589049144
O                    -6.635239022778    -1.291896940573     0.137240564390
H                    -9.749949080868     3.867608814600     0.870034386386
H                    -7.645259424299     3.160111451893     1.994926306629
H                   -10.669918126424     2.511261127244    -1.002585202414
H                    -6.344669747895     3.115841962852    -4.108345905478
H                    -7.649622860825     2.338563599489    -6.125799735766
H                    -6.470688993114     1.091182813330     1.239231922791
H                    -9.467685432811     0.491768393039    -1.781606733719
H                    -6.059664972471     1.546251676704    -2.190541795572
H                    -8.571948634131     0.014613281590    -6.107878085881
H                    -5.608101161978    -2.386748571255    -2.379570446437
H                    -7.097255437875    -2.567563021242    -3.356797418707
H                    -7.094188660144    -2.983750747815    -1.618808825675
