
  -OEChem-12102412493D

 20 20  0     0  0  0  0  0  0999 V2000
    1.8857   -1.0358   -0.1363 C   0  0  0  0  0  0  0  0  0  0  0  0
    2.9137   -1.6300    0.6025 C   0  0  0  0  0  0  0  0  0  0  0  0
    0.8139   -0.4635    0.5561 C   0  0  0  0  0  0  0  0  0  0  0  0
    2.8803   -1.6563    1.9970 C   0  0  0  0  0  0  0  0  0  0  0  0
    0.7628   -0.4800    1.9501 C   0  0  0  0  0  0  0  0  0  0  0  0
    1.7994   -1.0789    2.7074 C   0  0  0  0  0  0  0  0  0  0  0  0
    0.6327   -0.5070    4.7939 C   0  0  0  0  0  0  0  0  0  0  0  0
    2.8294   -1.7288    4.8423 C   0  0  0  0  0  0  0  0  0  0  0  0
    1.7576   -1.0988    4.0932 N   0  0  0  0  0  0  0  0  0  0  0  0
    1.9188   -1.0193   -1.2219 H   0  0  0  0  0  0  0  0  0  0  0  0
    3.7592   -2.0828    0.0896 H   0  0  0  0  0  0  0  0  0  0  0  0
    0.0005    0.0051    0.0067 H   0  0  0  0  0  0  0  0  0  0  0  0
    3.6980   -2.1274    2.5300 H   0  0  0  0  0  0  0  0  0  0  0  0
   -0.0865   -0.0251    2.4465 H   0  0  0  0  0  0  0  0  0  0  0  0
    0.7768   -0.6190    5.8693 H   0  0  0  0  0  0  0  0  0  0  0  0
   -0.3176   -0.9927    4.5303 H   0  0  0  0  0  0  0  0  0  0  0  0
    0.5352    0.5665    4.5792 H   0  0  0  0  0  0  0  0  0  0  0  0
    2.6211   -1.6469    5.9099 H   0  0  0  0  0  0  0  0  0  0  0  0
    3.7994   -1.2483    4.6524 H   0  0  0  0  0  0  0  0  0  0  0  0
    2.9273   -2.7967    4.6006 H   0  0  0  0  0  0  0  0  0  0  0  0
  1  2  1  0  0  0  0
  1  3  2  0  0  0  0
  1 10  1  0  0  0  0
  2  4  2  0  0  0  0
  2 11  1  0  0  0  0
  3  5  1  0  0  0  0
  3 12  1  0  0  0  0
  4  6  1  0  0  0  0
  4 13  1  0  0  0  0
  5  6  2  0  0  0  0
  5 14  1  0  0  0  0
  6  9  1  0  0  0  0
  7  9  1  0  0  0  0
  7 15  1  0  0  0  0
  7 16  1  0  0  0  0
  7 17  1  0  0  0  0
  8  9  1  0  0  0  0
  8 18  1  0  0  0  0
  8 19  1  0  0  0  0
  8 20  1  0  0  0  0
M  END
$$$$
