28
0 1 C13H12N2O
C                    -1.203324502618    11.344718211379     3.521775150559
C                    -2.599941162802    11.341001746911     3.426715756724
C                    -0.533337035681    12.520628360508     3.876415111859
C                    -0.226605820934    17.419985661692     1.842665465164
C                    -0.507859560743    16.673144613676     0.693513008232
C                    -3.321832304392    12.507546343137     3.682399272706
C                    -1.254268514400    13.692582507812     4.114622153576
C                    -1.028401059719    17.252723826370     2.969062259559
C                    -1.596380279322    15.799631739105     0.729874896377
C                    -2.652487602554    13.693773526960     4.010249553048
C                    -2.101841460777    16.349751757025     2.898945114956
C                    -3.480009833915    14.902924249500     4.322413856675
C                    -3.697791619570    17.314289340247     4.521206806055
N                    -2.391615165348    15.649245417949     1.797434672803
N                    -2.939247764622    16.155315888753     4.030936556034
O                    -4.562404289093    14.805518849046     4.896406831312
H                    -0.640979887869    10.434646033812     3.328407717534
H                    -3.124456269328    10.427425458399     3.158868033617
H                     0.549703095071    12.524041003172     3.969094578815
H                     0.615131713712    18.107220739042     1.867091464984
H                     0.095838718405    16.763548608042    -0.204483080799
H                    -4.406147122500    12.516262378639     3.630688684233
H                    -0.728386971772    14.600199689421     4.394820348895
H                    -0.819248334001    17.783921377421     3.892567325447
H                    -1.854046987444    15.199033353599    -0.140939613636
H                    -4.614504854711    17.458589811265     3.938158614491
H                    -3.078201233309    18.208342847387     4.442616026154
H                    -3.974017651992    17.149862100863     5.562816573462
