22
0 1 C7H11N3O
C                     3.109682980425     3.004013456513    -4.727046289756
C                     4.209856736818     3.387293472724    -3.967638796433
C                     2.144514739679     2.463626520945    -3.829886993940
C                     2.677061555031     2.559288160780    -2.535598865597
C                     2.277768435337     2.047332662590    -1.227974481984
C                     0.606694517557     1.090949747811     0.226588072330
C                    -0.069613590154     2.810938796072    -1.375961418415
N                     3.944896670248     3.118052039722    -2.662187225030
N                     0.881412056256     1.961402586368    -4.184738578499
N                     0.920024434535     1.785015608642    -1.022838015499
O                     3.129934020766     1.802701801127    -0.360510182307
H                     3.012853478236     3.097516169748    -5.801514077784
H                     5.144952196522     3.834990516546    -4.275953632192
H                     0.666504295534     1.761171978926     1.095297674153
H                     1.311145327686     0.273701248574     0.380441329733
H                    -0.409134603996     0.690427042534     0.157065352488
H                    -1.038440149376     2.339598966453    -1.569710012493
H                     0.229305942360     3.355032999009    -2.269061088924
H                    -0.192410865840     3.526176671969    -0.549179638266
H                     4.579181439799     3.177684643877    -1.876217940915
H                     0.548651096068     1.262889763680    -3.525172447085
H                     0.873186869658     1.582511714112    -5.126304711299
