22
0 1 C7H11N3O
C                     2.917906497516     3.238815660929    -4.665832620515
C                     4.061718106448     3.534423200284    -3.943452159341
C                     2.104641183937     2.397392796219    -3.846360179965
C                     2.803117519856     2.174239285073    -2.649810156372
C                     2.372124854290     1.340365567199    -1.542120956440
C                     2.769566134210     0.322158280927     0.615697340649
C                     4.629233406974     0.461119306264    -0.961892940735
N                     4.014005033752     2.876278290688    -2.744835529404
N                     0.829912614782     1.936577835645    -4.142273208031
N                     3.313434129765     0.975228169401    -0.573315088046
O                     1.178320487822     1.005375416260    -1.432027897346
H                     2.680597628279     3.598817118725    -5.658777140211
H                     4.893663100392     4.178748482978    -4.195223648125
H                     2.522684666195    -0.732780365020     0.430132641471
H                     1.860519184571     0.832648572088     0.932617116448
H                     3.515871702515     0.375329970013     1.414737571749
H                     5.396535128882     0.795410969743    -0.253425373946
H                     4.901811069451     0.794923205941    -1.961489175635
H                     4.625539702417    -0.638892638322    -0.963835063432
H                     4.574952520120     3.122074744334    -1.941135644252
H                     0.467396840262     1.302040405143    -3.434889692509
H                     0.694091181960     1.620899207952    -5.094974356492
