18   
torsion grid (-165,)
C        1.4305588636   -0.2876523259    1.5002365535
C        0.1001870466   -0.3937038063    1.0812910453
C        1.8128452758   -0.8036301324    2.7370983322
C       -0.8039761469   -1.0243453755    1.9377280006
C        0.8166164270   -1.4174191789    3.5159127615
C        2.2242461152   -2.0516565579    5.5036650536
C        2.0866878489   -2.7072703172    6.8681472316
N       -0.4636022152   -1.5282937049    3.1302520123
N        1.0503507969   -1.9830281569    4.7822470395
O        3.2969671693   -1.6087129326    5.1043021931
H        2.1717304932    0.1947808522    0.8681487041
H       -0.2291649124   -0.0022128831    0.1236831931
H        2.8287445830   -0.7457948079    3.1026888373
H       -1.8507874399   -1.1326866354    1.6584874574
H        2.1201788156   -1.9276536364    7.6357932351
H        2.9442061409   -3.3643614039    7.0257609180
H        1.1629618855   -3.2794044045    6.9908499219
H        0.2090368242   -2.3776300479    5.1872786290
18   
torsion grid (-150,)
C        1.4382999277   -0.3056145517    1.4860329937
C        0.1005327246   -0.3776875776    1.0835522801
C        1.8217737192   -0.8291082414    2.7192821877
C       -0.8091791955   -0.9827667320    1.9523591895
C        0.8196371817   -1.4151441966    3.5119453780
C        2.2329626417   -2.0733779219    5.4890195699
C        2.0791545171   -2.7087262469    6.8616313713
N       -0.4676473236   -1.4930801209    3.1419112666
N        1.0547204666   -1.9850099271    4.7756865989
O        3.3118434346   -1.6584090230    5.0773343666
H        2.1841320501    0.1560225262    0.8439586672
H       -0.2301449934    0.0203498189    0.1291148431
H        2.8433117357   -0.7969489076    3.0720934388
H       -1.8618338129   -1.0640989910    1.6861770377
H        1.8502177133   -1.9277967144    7.5949231678
H        3.0277977408   -3.1688460334    7.1403346373
H        1.2833399338   -3.4584992714    6.8985686748
H        0.2078043174   -2.3534940194    5.1942022177
18   
torsion grid (-135,)
C        1.4384783385   -0.3321859068    1.4779412298
C        0.0939768397   -0.3764542516    1.0940956926
C        1.8260479953   -0.8526466801    2.7111129395
C       -0.8175387626   -0.9513742191    1.9811872402
C        0.8215075027   -1.4071955036    3.5233624663
C        2.2459045086   -2.0793924896    5.4889521388
C        2.0861947641   -2.7121544616    6.8625129035
N       -0.4721244332   -1.4581466224    3.1712010898
N        1.0607137826   -1.9696264551    4.7891971960
O        3.3284783365   -1.6923281581    5.0609072784
H        2.1862407395    0.1053750023    0.8214016375
H       -0.2402663822    0.0200017914    0.1402478812
H        2.8528284615   -0.8409660816    3.0496754069
H       -1.8753468967   -1.0104611536    1.7299695590
H        1.6221078588   -1.9974295012    7.5510536332
H        3.0734864464   -2.9737696766    7.2426759006
H        1.4584212741   -3.6083404677    6.8296374574
H        0.2113993594   -2.3152186699    5.2228765004
18   
torsion grid (-120,)
C        1.2046146205    0.0984682787    1.7025317996
C        0.2197096852   -0.5636192262    0.9618046432
C        1.5590723150   -0.3733097139    2.9648627619
C       -0.3759894767   -1.6899874648    1.5315962637
C        0.8922810321   -1.5169844786    3.4380407433
C        2.0419702435   -1.7355954548    5.6690433904
C        2.0169176803   -2.6430806070    6.8892919278
N       -0.0543532343   -2.1642280039    2.7415467132
N        1.1422085804   -2.1063100866    4.6892665229
O        2.7925806994   -0.7699770046    5.5747976431
H        1.6976906223    0.9804102417    1.3016494037
H       -0.0790309679   -0.2213466810   -0.0242580525
H        2.3142117918    0.1053294217    3.5729013466
H       -1.1477520976   -2.2409376037    0.9964268078
H        1.0251119003   -2.6445644719    7.3540549464
H        2.7500764478   -2.2808789538    7.6092518679
H        2.2609560159   -3.6746255305    6.6135398817
H        0.5631634824   -2.9232335064    4.8518840295
18   
torsion grid (-105,)
C        1.2243286493    0.0757523852    1.6923376996
C        0.2154851770   -0.5667748028    0.9667847422
C        1.5769186972   -0.3920474843    2.9566894271
C       -0.4061610352   -1.6705188630    1.5529566016
C        0.8827205871   -1.5119782162    3.4467999000
C        2.0401087007   -1.7348599299    5.6729117688
C        2.0257427589   -2.6447264175    6.8913009258
N       -0.0871380640   -2.1404632470    2.7652349150
N        1.1269791772   -2.0954631416    4.7020457016
O        2.8077247948   -0.7837972771    5.5668047094
H        1.7377072148    0.9396817404    1.2779661342
H       -0.0821304068   -0.2265367150   -0.0203218027
H        2.3492744818    0.0725229214    3.5539312328
H       -1.1971418839   -2.2056576177    1.0299377960
H        1.0073624379   -2.8494748686    7.2368633611
H        2.5925818651   -2.1675765116    7.6904239965
H        2.4984809551   -3.6023708654    6.6468184763
H        0.5276005402   -2.8947257422    4.8774001835
18   
torsion grid (-90,)
C        1.2482050054    0.0726774325    1.6754780587
C        0.2218257105   -0.5467814346    0.9546039254
C        1.5898056014   -0.3966482611    2.9423689362
C       -0.4282709876   -1.6300137062    1.5482880186
C        0.8668872129   -1.4949104819    3.4395925341
C        2.0311750349   -1.7449960759    5.6580449989
C        2.0157050707   -2.6551827125    6.8756073816
N       -0.1202978118   -2.1012392606    2.7628727898
N        1.0959893506   -2.0770201346    4.6988150277
O        2.8272534607   -0.8183217335    5.5429251988
H        1.7838640910    0.9202008721    1.2554930013
H       -0.0678431103   -0.2045582366   -0.0341910021
H        2.3749059296    0.0506068173    3.5362028901
H       -1.2339502646   -2.1469145746    1.0293977065
H        1.0194718187   -3.0459803714    7.1031959717
H        2.3946894604   -2.0976884759    7.7327518674
H        2.6836926767   -3.5048177087    6.6968090301
H        0.4772063529   -2.8601168685    4.8779976099
18   
torsion grid (-75,)
C        1.2610776617    0.0551193536    1.6689074924
C        0.2103993585   -0.5409385234    0.9636043928
C        1.6073047604   -0.4205677261    2.9322462743
C       -0.4582201181   -1.6069326753    1.5680135583
C        0.8644504981   -1.4996695862    3.4416607475
C        2.0443802235   -1.7660644286    5.6489533072
C        2.0231153927   -2.6547300494    6.8819958412
N       -0.1460124511   -2.0831729590    2.7794839553
N        1.0962174935   -2.0855067450    4.6991048532
O        2.8596953090   -0.8577689015    5.5199766435
H        1.8116854804    0.8884604011    1.2399559267
H       -0.0839322833   -0.1938180360   -0.0221010761
H        2.4108958995    0.0080850131    3.5149504057
H       -1.2829898988   -2.1049523574    1.0608002251
H        1.0976360317   -3.2257891269    6.9965066482
H        2.1759851463   -2.0295328876    7.7637248899
H        2.8611169380   -3.3565828778    6.8221965488
H        0.4591353391   -2.8508069289    4.8889604340
18   
torsion grid (-60,)
C        1.2801191423    0.0565927828    1.6533375367
C        0.2072493196   -0.5093702569    0.9567930725
C        1.6261445000   -0.4327465411    2.9115707663
C       -0.4825816693   -1.5596969252    1.5648837467
C        0.8607153191   -1.4936989023    3.4255289757
C        2.0519627312   -1.7938057451    5.6216504007
C        2.0030312989   -2.6601470962    6.8696351884
N       -0.1710937147   -2.0483384179    2.7715638848
N        1.0900596837   -2.0901696090    4.6786391539
O        2.8911718094   -0.9084436990    5.4853075017
H        1.8481693846    0.8766637437    1.2215612593
H       -0.0878412161   -0.1514369695   -0.0248185092
H        2.4468036676   -0.0277103126    3.4873332952
H       -1.3250328814   -2.0343741538    1.0644139825
H        1.1886464677   -3.3894934624    6.8738243383
H        1.9037060143   -2.0077126081    7.7410230540
H        2.9555967797   -3.1889027603    6.9625574967
H        0.4354853338   -2.8393977588    4.8723443009
18   
torsion grid (-45,)
C        1.2884429507    0.0395911840    1.6486025374
C        0.1906556889   -0.5025699541    0.9721783567
C        1.6464828730   -0.4561612721    2.9009111520
C       -0.5115333827   -1.5366696565    1.5937198773
C        0.8663332560   -1.4990146364    3.4296855051
C        2.0827956747   -1.8170803855    5.6099864984
C        2.0087036463   -2.6557763754    6.8755288147
N       -0.1893282673   -2.0309870379    2.7952687819
N        1.1055366876   -2.1003577310    4.6784708090
O        2.9401811371   -0.9521086361    5.4576195919
H        1.8669131162    0.8462175196    1.2054889105
H       -0.1138952549   -0.1388790394   -0.0044134358
H        2.4867182058   -0.0695749474    3.4609066233
H       -1.3733813463   -1.9926686218    1.1091595644
H        1.3516676656   -3.5256968875    6.7914466318
H        1.6497854405   -2.0227002127    7.6930315622
H        3.0172469154   -2.9860665394    7.1326152422
H        0.4357626131   -2.8323222358    4.8861854662
18   
torsion grid (-30,)
C        1.3091229791    0.0373683661    1.6294329539
C        0.1908782763   -0.4766545720    0.9645619115
C        1.6661611205   -0.4670757502    2.8784810467
C       -0.5314333229   -1.4916968708    1.5942555329
C        0.8651233583   -1.4890902012    3.4168675554
C        2.0956339857   -1.8369056850    5.5855475421
C        1.9919212641   -2.6655790432    6.8558016704
N       -0.2101829291   -1.9936300459    2.7930001080
N        1.1015078837   -2.0947569511    4.6636849016
O        2.9766973790   -0.9985175603    5.4222075437
H        1.9040263461    0.8283890124    1.1799591844
H       -0.1139398597   -0.1059634250   -0.0092996868
H        2.5220383154   -0.1021251088    3.4292121630
H       -1.4095914049   -1.9255853885    1.1187318589
H        1.5258775967   -3.6421023428    6.6949434233
H        1.3946700837   -2.1165834271    7.5918855350
H        2.9933457545   -2.8006998896    7.2661984168
H        0.4155328351   -2.8095663665    4.8795470033
18   
torsion grid (-15,)
C        1.3275264511    0.0220490385    1.6138028980
C        0.1900746995   -0.4693758570    0.9644270886
C        1.6830994283   -0.4795818347    2.8642830395
C       -0.5527793616   -1.4593244382    1.6098259989
C        0.8607694476   -1.4756347401    3.4192976012
C        2.1051235135   -1.8401138242    5.5787713853
C        1.9898431856   -2.6708051955    6.8472522291
N       -0.2331002737   -1.9580802642    2.8103511652
N        1.0929978521   -2.0748052842    4.6694834001
O        3.0068497942   -1.0276240896    5.4003887207
H        1.9382961793    0.7932055175    1.1512528693
H       -0.1140673496   -0.0999813981   -0.0101195595
H        2.5531709295   -0.1315479215    3.4036123975
H       -1.4462937341   -1.8746286709    1.1464345227
H        1.7484385571   -3.7168194264    6.6333529633
H        1.1980971971   -2.2641777961    7.4861939348
H        2.9351514104   -2.6168892915    7.3868853833
H        0.3909449324   -2.7700610597    4.8986603851
18   
torsion grid (0,)
C        1.3422725520   -0.0063438632    1.6018369216
C        0.1841538329   -0.4725260606    0.9705510883
C        1.6983001532   -0.5019432437    2.8545569735
C       -0.5786409734   -1.4327361011    1.6371484191
C        0.8542612988   -1.4670522828    3.4312875356
C        2.1087459175   -1.8351600784    5.5846317654
C        1.9989631556   -2.6732352159    6.8490684239
N       -0.2597200294   -1.9254361146    2.8404348416
N        1.0839374371   -2.0571119104    4.6860411700
O        3.0242532169   -1.0419505602    5.3913329412
H        1.9694063429    0.7413025627    1.1229081407
H       -0.1204237061   -0.1065872275   -0.0051727791
H        2.5835086758   -0.1712356965    3.3800052557
H       -1.4888221407   -1.8282267481    1.1891185443
H        2.0139337831   -3.7422576412    6.6111688614
H        1.0647526352   -2.4591492141    7.3792311292
H        2.8417598399   -2.4381525613    7.4983326930
H        0.3654430670   -2.7297287892    4.9319053691
18   
torsion grid (15,)
C        1.3628973864   -0.0262478427    1.5848579008
C        0.1891747959   -0.4681258994    0.9650944568
C        1.7097171361   -0.5157603544    2.8425780951
C       -0.5979557268   -1.3976892347    1.6467857230
C        0.8414384701   -1.4492460332    3.4350931276
C        2.1014515422   -1.8351811248    5.5816971356
C        1.9985488840   -2.6826891310    6.8400790409
N       -0.2877350482   -1.8835676964    2.8550477688
N        1.0591813611   -2.0287187366    4.6971096472
O        3.0373456947   -1.0693091436    5.3752814066
H        2.0086399438    0.6972421107    1.0936872036
H       -0.1093788621   -0.1062944130   -0.0140085880
H        2.6058062020   -0.2031834083    3.3606070962
H       -1.5209218107   -1.7728522027    1.2075114829
H        2.2655965285   -3.7203604270    6.6112332105
H        0.9867203754   -2.6777588615    7.2576443658
H        2.7006992857   -2.2970627160    7.5789942214
H        0.3242124947   -2.6791097738    4.9532218371
18   
torsion grid (30,)
C        1.3793808815   -0.0432874033    1.5714989019
C        0.1910172081   -0.4580808290    0.9611488022
C        1.7202651217   -0.5312424959    2.8315500217
C       -0.6168196299   -1.3604554519    1.6551630946
C        0.8305663766   -1.4362654174    3.4360267669
C        2.0978591600   -1.8481180824    5.5721996257
C        1.9995637852   -2.6910041041    6.8335229474
N       -0.3130760372   -1.8447078356    2.8656718858
N        1.0386694715   -2.0106650338    4.7025125801
O        3.0546963974   -1.1122991001    5.3511968106
H        2.0415830385    0.6585364683    1.0709376039
H       -0.1030843122   -0.0963404569   -0.0193546844
H        2.6272293569   -0.2387687566    3.3423547034
H       -1.5519681352   -1.7142597349    1.2240450478
H        2.5026339708   -3.6488970567    6.6622605807
H        0.9679067698   -2.8939984594    7.1353474747
H        2.5223387921   -2.1743824835    7.6393472589
H        0.2889945747   -2.6403826162    4.9662536191
18   
torsion grid (45,)
C        1.3872210470   -0.0640450112    1.5661438695
C        0.1806873753   -0.4492078787    0.9723764268
C        1.7330880741   -0.5583832125    2.8224282462
C       -0.6402563201   -1.3297095408    1.6791041529
C        0.8286927260   -1.4393692024    3.4402226699
C        2.1096444386   -1.8733856100    5.5627899287
C        2.0083914950   -2.6906922276    6.8404086855
N       -0.3325259849   -1.8196743019    2.8862390799
N        1.0389335222   -2.0176511942    4.7050114052
O        3.0820178905   -1.1627541915    5.3261699742
H        2.0601778595    0.6198880840    1.0552989107
H       -0.1172940192   -0.0816782153   -0.0048114201
H        2.6540778120   -0.2886179115    3.3204838582
H       -1.5897999364   -1.6603830537    1.2613283322
H        2.7190776367   -3.5209175820    6.7806826858
H        1.0104417839   -3.0963572864    7.0276461447
H        2.3073898871   -2.0603163445    7.6803880506
H        0.2763666904   -2.6262581252    4.9799746917
18   
torsion grid (60,)
C        1.3990128786   -0.0743345452    1.5544812143
C        0.1754545792   -0.4265738994    0.9753492710
C        1.7474111769   -0.5820492162    2.8047436660
C       -0.6591108982   -1.2881688456    1.6894619155
C        0.8284914250   -1.4413020787    3.4315615390
C        2.1196491774   -1.9061488228    5.5410858629
C        2.0002580696   -2.6911175005    6.8372702167
N       -0.3490135033   -1.7897829268    2.8911710051
N        1.0403163700   -2.0301778380    4.6913281233
O        3.1072978949   -1.2207995632    5.2930367184
H        2.0829502676    0.5936738749    1.0371717896
H       -0.1252843599   -0.0482932597    0.0031274627
H        2.6814794755   -0.3383917453    3.2917742190
H       -1.6220463124   -1.5927908226    1.2826677470
H        2.8633614616   -3.3566846913    6.9204565037
H        1.0837595890   -3.2817043696    6.9173739452
H        2.0457731280   -1.9885950824    7.6739290652
H        0.2644275157   -2.6171938893    4.9754492258
18   
torsion grid (75,)
C        1.4031414340   -0.0927824775    1.5497356851
C        0.1625509036   -0.4168460399    0.9906505805
C        1.7610755652   -0.6080948679    2.7941493649
C       -0.6790913497   -1.2593610659    1.7190108974
C        0.8330598606   -1.4460448365    3.4363339565
C        2.1440928193   -1.9330078686    5.5290507795
C        2.0065278785   -2.6880133280    6.8411766775
N       -0.3607937200   -1.7678493256    2.9156782015
N        1.0526790923   -2.0402490225    4.6920280486
O        3.1437824858   -1.2718700406    5.2646686810
H        2.0934765794    0.5594007720    1.0208721875
H       -0.1454946655   -0.0318544855    0.0233556958
H        2.7086784682   -0.3860439117    3.2651103451
H       -1.6552833195   -1.5421654413    1.3283966716
H        2.9612765683   -3.1656561028    7.0691480798
H        1.2147559451   -3.4422082480    6.8334441685
H        1.7950048246   -1.9685464005    7.6387004688
H        0.2678114595   -2.6084305957    4.9899471281
18   
torsion grid (90,)
C        1.4082160185   -0.1136103114    1.5431295059
C        0.1521725778   -0.4118623709    1.0044051602
C        1.7728183643   -0.6319672075    2.7842464739
C       -0.6973830311   -1.2319749772    1.7488296343
C        0.8360357571   -1.4458964208    3.4445352846
C        2.1651789965   -1.9476412665    5.5228860873
C        2.0126462195   -2.6851882744    6.8434714952
N       -0.3724876161   -1.7425079964    2.9429554929
N        1.0617306473   -2.0396034089    4.6989541505
O        3.1756811437   -1.3110558151    5.2411575588
H        2.1051550161    0.5204587458    1.0010441451
H       -0.1616200565   -0.0240188286    0.0401172253
H        2.7323841652   -0.4296146027    3.2395969902
H       -1.6855043138   -1.4941599186    1.3740964909
H        3.0030683020   -2.9681788721    7.2014330446
H        1.3826100212   -3.5760880109    6.7639960125
H        1.5614020109   -2.0118228680    7.5803653108
H        0.2686059611   -2.5880463369    5.0126488588
18   
torsion grid (105,)
C        1.4145582894   -0.1381962647    1.5334795303
C        0.1451881568   -0.4121311123    1.0132553681
C        1.7820342631   -0.6529835433    2.7751565890
C       -0.7136966635   -1.2046779242    1.7764775415
C        0.8351143258   -1.4383508602    3.4555337292
C        2.1776555170   -1.9506030996    5.5241705270
C        2.0195846567   -2.6874191044    6.8449868927
N       -0.3861545713   -1.7112160779    2.9716380742
N        1.0630004041   -2.0244664265    4.7126823141
O        3.1982749464   -1.3386024309    5.2261855976
H        2.1193957415    0.4739991910    0.9766373590
H       -0.1715622696   -0.0264947911    0.0490580186
H        2.7516320990   -0.4683402831    3.2165448975
H       -1.7122950415   -1.4472482672    1.4165890186
H        2.9993765908   -2.7798420919    7.3130426708
H        1.5838290122   -3.6823495006    6.7085428729
H        1.3622379961   -2.1191711684    7.5123384864
H        0.2614793113   -2.5518037926    5.0418102519
18   
torsion grid (120,)
C        1.4215814845   -0.1657341149    1.5230127699
C        0.1410152930   -0.4173177515    1.0190997138
C        1.7890499107   -0.6709541263    2.7685674927
C       -0.7289963749   -1.1782073432    1.8016433690
C        0.8305064275   -1.4240046240    3.4690276130
C        2.1837782497   -1.9458092878    5.5286615321
C        2.0271069589   -2.6934343141    6.8437842348
N       -0.4015882347   -1.6749437163    3.0009531800
N        1.0566080874   -1.9964906633    4.7325405393
O        3.2149511666   -1.3598160259    5.2154241859
H        2.1349773488    0.4216928870    0.9505967225
H       -0.1760229293   -0.0381554785    0.0524409004
H        2.7667548597   -0.5022869479    3.1982993026
H       -1.7364956840   -1.4022487667    1.4547660653
H        2.9555251263   -2.6069332539    7.4073876807
H        1.8094149989   -3.7522362334    6.6673328965
H        1.2056676867   -2.2748592466    7.4351671199
H        0.2468446797   -2.5017489427    5.0762146477
18   
torsion grid (135,)
C        1.4210335854   -0.1998070853    1.5210762697
C        0.1314599761   -0.4339600622    1.0320346906
C        1.7887802054   -0.6896695263    2.7727104378
C       -0.7470504701   -1.1625002410    1.8356300057
C        0.8213869552   -1.4106911707    3.4942692195
C        2.1905476541   -1.9475993781    5.5390714742
C        2.0514578274   -2.7046808361    6.8505764293
N       -0.4195573829   -1.6444528202    3.0409244121
N        1.0457887039   -1.9629476182    4.7672679729
O        3.2319870611   -1.3933502141    5.2025938660
H        2.1412903080    0.3626460117    0.9324123998
H       -0.1860681918   -0.0657247722    0.0613134594
H        2.7732207243   -0.5330782429    3.1915187101
H       -1.7618865635   -1.3719045490    1.5012363196
H        2.8960615843   -2.4509954507    7.4908838845
H        2.0647366712   -3.7837850253    6.6617500779
H        1.1166596950   -2.4619654525    7.3659150842
H        0.2302258896   -2.4487150547    5.1246652710
18   
torsion grid (150,)
C        1.4258594817   -0.2266377174    1.5137237153
C        0.1258135337   -0.4323185364    1.0400250422
C        1.7941147688   -0.7150036607    2.7658693026
C       -0.7628327857   -1.1315310343    1.8585162365
C        0.8161268197   -1.4050254715    3.5030728580
C        2.1919044428   -1.9587692007    5.5378885010
C        2.0627988966   -2.7112256733    6.8525871335
N       -0.4349832665   -1.6112177889    3.0645499268
N        1.0391473153   -1.9522926111    4.7789344796
O        3.2425416286   -1.4312219563    5.1863826783
H        2.1538761985    0.3124004897    0.9128357197
H       -0.1922904818   -0.0643661236    0.0693825761
H        2.7862970579   -0.5798213381    3.1737202139
H       -1.7859951339   -1.3179765800    1.5361300269
H        2.7732674212   -2.2909918445    7.5653000489
H        2.3230278245   -3.7629738450    6.6911321730
H        1.0535134177   -2.6675534725    7.2724625442
H        0.2153796569   -2.4144836200    5.1477080407
18   
torsion grid (165,)
C        1.4365078496   -0.2430929017    1.5004607879
C        0.1273095739   -0.4127807855    1.0380132058
C        1.8020934099   -0.7402762759    2.7500047344
C       -0.7733430236   -1.0861541326    1.8651146415
C        0.8114188317   -1.4017561002    3.4961807415
C        2.1856336445   -1.9821799080    5.5234207136
C        2.0550309562   -2.7113883904    6.8507434783
N       -0.4486982303   -1.5734910371    3.0688737742
N        1.0298333830   -1.9549790695    4.7706971211
O        3.2469082218   -1.4829178375    5.1616807392
H        2.1740352936    0.2747971083    0.8926328607
H       -0.1887353759   -0.0371361609    0.0696338784
H        2.8010710830   -0.6326151851    3.1493835004
H       -1.8040640464   -1.2442415716    1.5518274775
H        2.5781802183   -2.1352014192    7.6164336261
H        2.5537047781   -3.6822287987    6.7671053288
H        1.0201003186   -2.8755553827    7.1632015076
H        0.1956903849   -2.3902682862    5.1479262561
18   
torsion grid (180,)
C        1.4303952684   -0.2684783269    1.5048777627
C        0.1096870253   -0.4076122326    1.0656383244
C        1.8061030925   -0.7742686231    2.7479955622
C       -0.7914138864   -1.0600639445    1.9089124856
C        0.8138414094   -1.4123798729    3.5121061347
C        2.2084078027   -2.0182302439    5.5172493417
C        2.0812347889   -2.7098348206    6.8648422615
N       -0.4571679163   -1.5549399009    3.1069423816
N        1.0418608128   -1.9707832843    4.7828751769
O        3.2750294754   -1.5465989643    5.1343637515
H        2.1690254402    0.2319658778    0.8839188397
H       -0.2146457452   -0.0247743885    0.1028261642
H        2.8143694624   -0.6906724119    3.1293875946
H       -1.8308268515   -1.1944098280    1.6138113634
H        2.3753392239   -2.0039002721    7.6461027561
H        2.7866583849   -3.5445408208    6.8944182856
H        1.0767117938   -3.0833664910    7.0806852105
H        0.2049884604   -2.3875282919    5.1743972490
