24   
torsion grid (-165,)
C       -0.6159220940   -1.3444642582    0.6578583602
C       -4.7586727308    0.0914814027    1.8015941222
C       -3.4830780393    1.6498529671    3.1436614112
C       -5.9438696591    0.5885730611    2.3414439659
C       -4.6573412618    2.1495895400    3.7026416849
C       -3.5052859881    0.5965433855    2.2063076679
C       -5.8709143216    1.6019101427    3.2937613753
C       -2.2344287781    0.1198792402    1.6591105854
C       -2.7530888912   -2.3233289335    1.4447946963
C       -1.9124143213   -1.1421574457    1.2546032044
C       -2.7724783178   -5.7064995184    0.8455833737
N        0.4378003042   -1.4766245059    0.1789925729
N       -2.4329906786   -3.4314909942    0.8747510445
O       -3.3387951919   -4.4355750952    1.1964534735
F       -7.0188050296    2.0857226744    3.8235816109
H       -4.8137023849   -0.6617088164    1.0228339798
H       -2.5285507566    2.0697566893    3.4502700787
H       -6.9126315319    0.2144807455    2.0252504008
H       -4.6452997695    2.9503564620    4.4353432320
H       -1.4489729787    0.8679754560    1.5774046400
H       -3.6221723085   -2.2573765099    2.0994205712
H       -3.5620153453   -6.4368779430    1.0314663371
H       -1.9017103694   -5.9247353876    1.4721046099
H       -2.4832982860   -5.7184088954   -0.2094508743
24   
torsion grid (-150,)
C       -0.6297700728   -1.3241818780    0.5903853660
C       -4.7587702617    0.1106175470    1.7756857068
C       -3.4721033148    1.6073814612    3.1781399845
C       -5.9404602512    0.5989758159    2.3307379183
C       -4.6435206419    2.0968198445    3.7518961218
C       -3.5024689154    0.5893357092    2.2028489639
C       -5.8609349880    1.5758726788    3.3199950831
C       -2.2347570126    0.1202301437    1.6422738381
C       -2.7780211855   -2.3082295297    1.3432248440
C       -1.9247455468   -1.1291057335    1.1923752595
C       -2.7616195746   -5.6713809626    0.9326588455
N        0.4240319594   -1.4501889140    0.1100382428
N       -2.4805684285   -3.3951525228    0.7231269220
O       -3.4132620965   -4.3957502536    1.0048495856
F       -7.0056776758    2.0506055059    3.8641753964
H       -4.8183096304   -0.6130386061    0.9696806011
H       -2.5145356014    2.0067866584    3.5022182065
H       -6.9117645156    0.2460708797    1.9984704541
H       -4.6264190440    2.8700314652    4.5134962672
H       -1.4418469217    0.8631285643    1.5892742488
H       -3.6426108758   -2.2571018374    2.0051558869
H       -3.5581440170   -6.4119161457    1.0264385621
H       -2.0452159220   -5.7836535466    1.7536628627
H       -2.2467591667   -5.7840563116   -0.0264195110
24   
torsion grid (-135,)
C       -0.6282570609   -1.3003881943    0.5235490863
C       -4.7503637586    0.1145065167    1.7471663379
C       -3.4606811438    1.5502480420    3.2094032479
C       -5.9319194930    0.5871347982    2.3157982085
C       -4.6319673086    2.0231505934    3.7969596094
C       -3.4929873367    0.5697283523    2.1964991487
C       -5.8506838133    1.5253546060    3.3417233978
C       -2.2259289904    0.1142098298    1.6237958580
C       -2.7860980288   -2.2982049076    1.2377076574
C       -1.9233776870   -1.1194256301    1.1287091920
C       -2.7842995096   -5.6012407842    1.0360768012
N        0.4270895003   -1.4144648819    0.0436061025
N       -2.5090798412   -3.3603058625    0.5686453515
O       -3.4659083389   -4.3595056044    0.8183681574
F       -6.9945524913    1.9852640968    3.8996196450
H       -4.8105750761   -0.5776100536    0.9139878630
H       -2.5023571647    1.9323819070    3.5515615300
H       -6.9037102231    0.2522248638    1.9667773819
H       -4.6138996571    2.7669855387    4.5872267511
H       -1.4281537233    0.8536013047    1.6008112815
H       -3.6450728655   -2.2655570781    1.9083195555
H       -3.5663619708   -6.3619288147    1.0770231642
H       -2.2336805293   -5.5775865121    1.9837206882
H       -2.0931933528   -5.8091542400    0.2126766107
24   
torsion grid (-120,)
C       -0.6165708136   -1.2826385328    0.4610736967
C       -4.7375588887    0.1050479527    1.7191731688
C       -3.4494658264    1.4847971320    3.2372424434
C       -5.9194390579    0.5603111818    2.3009766784
C       -4.6211965891    1.9392980373    3.8379704333
C       -3.4811620759    0.5411666151    2.1897582212
C       -5.8391911634    1.4607457326    3.3603892790
C       -2.2133225686    0.1021156784    1.6065906090
C       -2.7838898157   -2.2903669474    1.1337134428
C       -1.9120995480   -1.1133180438    1.0680839342
C       -2.8253192591   -5.4973236238    1.1494697227
N        0.4403463469   -1.3865530034   -0.0177443443
N       -2.5206249793   -3.3257402529    0.4201553090
O       -3.4903334490   -4.3337509668    0.6449336932
F       -6.9836627478    1.9031234218    3.9302859204
H       -4.7965365794   -0.5562316269    0.8611935622
H       -2.4912757803    1.8519230652    3.5957985894
H       -6.8909453206    0.2410748621    1.9368656209
H       -4.6042507839    2.6542320613    4.6544990194
H       -1.4132945441    0.8394651794    1.6134926444
H       -3.6392271749   -2.2768209186    1.8101307996
H       -3.5833201960   -6.2829420191    1.1729676043
H       -2.4417415960   -5.3163638775    2.1614880189
H       -1.9995409452   -5.7863363574    0.4900144790
24   
torsion grid (-105,)
C       -0.5973183335   -1.2547430031    0.3971782736
C       -4.7200862534    0.0883894214    1.6917465813
C       -3.4371978134    1.4154301611    3.2605732441
C       -5.9038598970    0.5206153538    2.2871097272
C       -4.6107557143    1.8460798503    3.8749036210
C       -3.4652909084    0.5093381518    2.1803100545
C       -5.8271215414    1.3826998668    3.3782237005
C       -2.1958571068    0.0918156208    1.5853947259
C       -2.7693056666   -2.2816308032    1.0322605790
C       -1.8934478740   -1.1047026774    1.0070617367
C       -2.8878903976   -5.3582513560    1.2619112859
N        0.4609403291   -1.3428335577   -0.0818462462
N       -2.5160353174   -3.2905226397    0.2795612602
O       -3.4870253463   -4.3135103801    0.4890476447
F       -6.9731266413    1.8025835409    3.9612653923
H       -4.7763132150   -0.5414230161    0.8102115161
H       -2.4803300218    1.7712263442    3.6337525435
H       -6.8741018830    0.2132336332    1.9097042641
H       -4.5966897763    2.5315500615    4.7163568232
H       -1.3964429362    0.8292263446    1.6182362815
H       -3.6197972888   -2.2878800510    1.7155246588
H       -3.6241417974   -6.1643536602    1.2881941494
H       -2.6723114224   -5.0159485374    2.2829287535
H       -1.9620128660   -5.7079469187    0.7906111048
24   
torsion grid (-90,)
C       -0.5730185317   -1.2230297917    0.3306616395
C       -4.7009010851    0.0587186490    1.6681474624
C       -3.4245941566    1.3470641859    3.2739230526
C       -5.8865597354    0.4646745949    2.2782095519
C       -4.5996499549    1.7511546821    3.9030698193
C       -3.4480286769    0.4732520465    2.1672103498
C       -5.8136450768    1.2941514502    3.3945562906
C       -2.1769467929    0.0817270681    1.5585975300
C       -2.7403028703   -2.2769847543    0.9406014591
C       -1.8683494353   -1.0966087596    0.9471014738
C       -2.9750581068   -5.2058170487    1.3600985384
N        0.4850621141   -1.2913333063   -0.1519280225
N       -2.4899542286   -3.2632620905    0.1582783125
O       -3.4472222243   -4.3087320788    0.3503495309
F       -6.9612877154    1.6885176538    3.9916480827
H       -4.7545035818   -0.5437211016    0.7675010519
H       -2.4695172380    1.6982451829    3.6559083621
H       -6.8553756236    0.1624327636    1.8930664712
H       -4.5887689808    2.4113747494    4.7645297977
H       -1.3823699525    0.8233046584    1.6100959198
H       -3.5852097517   -2.3006277876    1.6309641813
H       -3.6943908121   -6.0271938640    1.3810419557
H       -2.9411768206   -4.7184203550    2.3440800554
H       -1.9781962142   -5.5863951917    1.1071215429
24   
torsion grid (-75,)
C       -0.5443747308   -1.1754480982    0.2704787345
C       -4.6789539178    0.0236332936    1.6582195357
C       -3.4095892736    1.3042155760    3.2768641851
C       -5.8661685615    0.3991132112    2.2848216663
C       -4.5858702271    1.6777788207    3.9223301178
C       -3.4291023847    0.4499534632    2.1549195884
C       -5.7962636516    1.2097709908    3.4150239789
C       -2.1577438279    0.0886500793    1.5281348254
C       -2.6897508841   -2.2704207862    0.8877669604
C       -1.8356131790   -1.0777282729    0.9006322976
C       -3.0838477371   -5.0671724015    1.4453276265
N        0.5102833679   -1.2191512945   -0.2222575351
N       -2.4270347876   -3.2430390909    0.0922249216
O       -3.3469263496   -4.3238951520    0.2496429558
F       -6.9449770438    1.5747533050    4.0285230022
H       -4.7296460616   -0.5629105931    0.7468602858
H       -2.4570179258    1.6637720142    3.6573220647
H       -6.8332990988    0.0884336098    1.9020882682
H       -4.5787661784    2.3226602905    4.7953918450
H       -1.3758626279    0.8435283219    1.5790761329
H       -3.5272499267   -2.3045940192    1.5863265773
H       -3.7630671102   -5.9212959010    1.4079917934
H       -3.2871018220   -4.4816335621    2.3514800125
H       -2.0447593133   -5.4173536606    1.4606901268
24   
torsion grid (-60,)
C       -0.5228672247   -1.1158428384    0.2110428156
C       -4.6583233496   -0.0031700887    1.6622357598
C       -3.3932869042    1.2926390684    3.2707243121
C       -5.8436827157    0.3428813252    2.3094650142
C       -4.5677833105    1.6367062646    3.9359440191
C       -3.4103859949    0.4459572896    2.1431795091
C       -5.7759500811    1.1469230598    3.4444087157
C       -2.1413091078    0.1150085445    1.4942244909
C       -2.6323320741   -2.2566392981    0.8681932093
C       -1.8045656265   -1.0460624815    0.8644125746
C       -3.2130953676   -4.9472777059    1.4950400574
N        0.5235439837   -1.1356940011   -0.3003868319
N       -2.3498626758   -3.2248495231    0.0724976694
O       -3.2073513491   -4.3447550814    0.1929917572
F       -6.9233164255    1.4828346677    4.0775357017
H       -4.7099651596   -0.5834934282    0.7468566876
H       -2.4431278308    1.6697719708    3.6400176559
H       -6.8095128673    0.0146872175    1.9382219647
H       -4.5609813636    2.2756564759    4.8133526685
H       -1.3766690981    0.8880947539    1.5292700064
H       -3.4546423723   -2.2979480718    1.5826807751
H       -3.7455246080   -5.8912932944    1.3645033813
H       -3.7394802057   -4.3448040893    2.2455940049
H       -2.1871133722   -5.1414628691    1.8282017254
24   
torsion grid (-45,)
C       -0.4925684798   -1.0895963038    0.1666583715
C       -4.6332627785   -0.0658042608    1.6707207924
C       -3.3747468904    1.2692561071    3.2514379909
C       -5.8171555970    0.2555183777    2.3335152907
C       -4.5474166716    1.5894491869    3.9321240600
C       -3.3892223214    0.4158394190    2.1291993687
C       -5.7508674243    1.0681759407    3.4623449602
C       -2.1229464693    0.1114441172    1.4603390762
C       -2.5588239037   -2.2810895516    0.8689941586
C       -1.7653417281   -1.0484889300    0.8402720287
C       -3.3442209525   -4.8651354679    1.5054333594
N        0.5454862194   -1.0848458532   -0.3618188715
N       -2.2424463774   -3.2539119589    0.0883999839
O       -3.0336213717   -4.4032582648    0.1805650459
F       -6.8964014154    1.3806346057    4.1114275186
H       -4.6841226199   -0.6529792640    0.7595837992
H       -2.4283486171    1.6711389029    3.6039397502
H       -6.7805492728   -0.0974618257    1.9788952165
H       -4.5424990966    2.2339277199    4.8055173409
H       -1.3797935938    0.9057389277    1.4709643049
H       -3.3703791154   -2.3317166337    1.5936342898
H       -3.6481935528   -5.9048100270    1.3724833821
H       -4.1702780327   -4.3123394790    1.9699868871
H       -2.4549686746   -4.8136584142    2.1434124449
24   
torsion grid (-30,)
C       -0.4785290834   -1.0424650067    0.1203316726
C       -4.6175947674   -0.1042032814    1.6847388219
C       -3.3632654676    1.2716002321    3.2336787312
C       -5.7962618829    0.1948695838    2.3671721980
C       -4.5302965314    1.5700691129    3.9340758240
C       -3.3779471920    0.4105234187    2.1175606409
C       -5.7287826630    1.0171961850    3.4889460222
C       -2.1171960928    0.1319085330    1.4256201123
C       -2.4945818311   -2.2828961902    0.8826660236
C       -1.7390056200   -1.0279495599    0.8182935413
C       -3.4488054732   -4.7700992843    1.4909477026
N        0.5477586387   -1.0138996888   -0.4298540463
N       -2.1445857880   -3.2629600223    0.1233269666
O       -2.8621100501   -4.4435524500    0.2213128179
F       -6.8700137546    1.3071062336    4.1564403249
H       -4.6700632112   -0.6997133272    0.7790236505
H       -2.4201963822    1.6977889739    3.5659700783
H       -6.7575934788   -0.1826972537    2.0327578542
H       -4.5246283700    2.2206965624    4.8029420595
H       -1.3977714003    0.9475136409    1.4068450878
H       -3.2975358985   -2.3374352783    1.6150937958
H       -3.6864182411   -5.8321703880    1.4171373812
H       -4.3726358147   -4.2111803395    1.6865783174
H       -2.7301848043   -4.6011306383    2.3011841108
24   
torsion grid (-15,)
C       -0.4694486871   -1.0114547152    0.0891210014
C       -4.6041193776   -0.1492828335    1.7120937260
C       -3.3576818842    1.2880819399    3.2083876604
C       -5.7782299592    0.1330021744    2.4095120988
C       -4.5198016475    1.5705976089    3.9238204358
C       -3.3699159702    0.4048557298    2.1099186246
C       -5.7121908750    0.9793977576    3.5132919869
C       -2.1154846488    0.1452265414    1.3982628160
C       -2.4323954813   -2.2930473694    0.9215123856
C       -1.7166130944   -1.0177868149    0.8109992737
C       -3.5349437110   -4.7079645659    1.4589045055
N        0.5443465514   -0.9644016773   -0.4824957299
N       -2.0572331879   -3.2806958463    0.1829352390
O       -2.7051132195   -4.4893330902    0.3094672402
F       -6.8483072464    1.2538598117    4.1963516102
H       -4.6571467978   -0.7645592148    0.8197537120
H       -2.4202666507    1.7450228040    3.5148017949
H       -6.7353126206   -0.2756563305    2.1003336068
H       -4.5148817230    2.2386698175    4.7793325364
H       -1.4198501585    0.9797773755    1.3464233181
H       -3.2239065848   -2.3474367724    1.6649855085
H       -3.7896685485   -5.7670725951    1.4104653720
H       -4.4563261062   -4.1129818165    1.4240008112
H       -2.9866337887   -4.4976407164    2.3850927639
24   
torsion grid (0,)
C       -0.4611035335   -0.9975165007    0.0758701235
C       -4.5922403728   -0.2012602584    1.7446360718
C       -3.3599116277    1.3069112453    3.1811313715
C       -5.7617563850    0.0705739417    2.4537741119
C       -4.5169776505    1.5798267506    3.9084737819
C       -3.3665514691    0.3944810421    2.1067703529
C       -5.7000369283    0.9479073975    3.5334323969
C       -2.1171841004    0.1486303844    1.3811750966
C       -2.3743881116   -2.3093165692    0.9749559925
C       -1.6966498205   -1.0183136871    0.8173952099
C       -3.6041211194   -4.6717060158    1.4173055118
N        0.5417340848   -0.9373941608   -0.5135338143
N       -1.9771121379   -3.3066521580    0.2609842039
O       -2.5647215882   -4.5365182206    0.4395816728
F       -6.8319617544    1.2117707856    4.2276036950
H       -4.6435404443   -0.8416764737    0.8701002828
H       -2.4297251984    1.7954227801    3.4595399742
H       -6.7129706544   -0.3701628406    2.1717116022
H       -4.5153221504    2.2706446741    4.7457518841
H       -1.4442586819    0.9990858810    1.2977921981
H       -3.1557495292   -2.3623160084    1.7286309129
H       -3.8892711647   -5.7225772738    1.3632965478
H       -4.4702814888   -4.0434301597    1.1743998732
H       -3.2420597170   -4.4397264913    2.4265796207
24   
torsion grid (15,)
C       -0.0911450533   -1.1602551129    0.9301561952
C       -4.4852984747   -0.2236418276    1.4920347241
C       -3.5985190635    1.3829896605    3.0702885850
C       -5.7841945298    0.1082504283    1.8755575841
C       -4.8900284168    1.7164722027    3.4740308660
C       -3.3688354919    0.3912397487    2.0953046254
C       -5.9633434496    1.0649772052    2.8714364429
C       -1.9877467279    0.0847341499    1.7130541868
C       -2.1918871021   -2.3950399520    1.4309966736
C       -1.4693158055   -1.1220385601    1.3500627042
C       -3.6568608325   -4.6724790105    1.4868614654
N        1.0246087449   -1.1452763683    0.5962504405
N       -1.6527419238   -3.4462488931    0.9152911854
O       -2.2872708477   -4.6595774477    1.0628934191
F       -7.2222948776    1.3874710691    3.2504212146
H       -4.3400107616   -0.9286166035    0.6800058108
H       -2.7512941995    1.8860934889    3.5291109956
H       -6.6498669701   -0.3474281833    1.4048537809
H       -5.0733608468    2.4689895232    4.2345047948
H       -1.2950377056    0.9229756352    1.7373333426
H       -3.1366885289   -2.3895877122    1.9686455746
H       -3.9638659715   -5.7129805281    1.3775163286
H       -4.2728216699   -4.0331845540    0.8424075034
H       -3.7700933951   -4.3697583739    2.5354257499
24   
torsion grid (30,)
C       -0.0893388543   -1.1597000454    0.9227177818
C       -4.4856056622   -0.2685406720    1.5407513972
C       -3.5935530647    1.4116744100    3.0366809768
C       -5.7819548038    0.0587690758    1.9362583952
C       -4.8816825637    1.7420517069    3.4531152816
C       -3.3669045752    0.3856701647    2.0969287034
C       -5.9558440627    1.0512936977    2.8974775018
C       -1.9887831171    0.0852956091    1.7009086939
C       -2.1619537632   -2.4041957203    1.5074219511
C       -1.4595950060   -1.1257027180    1.3681027663
C       -3.6876249614   -4.6679191714    1.3996266825
N        1.0192591943   -1.1402114894    0.5660711688
N       -1.6250410818   -3.4682540637    1.0185129563
O       -2.2603382593   -4.6769479450    1.2509289960
F       -7.2118358930    1.3698948318    3.2884557469
H       -4.3455369248   -1.0026834788    0.7541351663
H       -2.7455136501    1.9447945856    3.4585473877
H       -6.6494647907   -0.4278532905    1.5012636403
H       -5.0619375746    2.5210427623    4.1872162853
H       -1.3075855858    0.9331983172    1.6856593910
H       -3.0971466533   -2.3956181955    2.0630626420
H       -3.9812856785   -5.7123233574    1.2868253119
H       -4.1511561519   -4.0617199343    0.6121388939
H       -4.0099134904   -4.3114378601    2.3861596260
24   
torsion grid (45,)
C       -0.0937380322   -1.1676532922    0.9180939095
C       -4.4860604097   -0.3083116506    1.5941953088
C       -3.5877590573    1.4416538812    3.0055939304
C       -5.7786726477    0.0186642887    2.0016049819
C       -4.8721041303    1.7716486224    3.4332679472
C       -3.3660393376    0.3816963453    2.1029109913
C       -5.9476064800    1.0462571322    2.9262277257
C       -1.9920546734    0.0828186841    1.6937079461
C       -2.1406447921   -2.4120106774    1.5878609217
C       -1.4545638026   -1.1324804321    1.3908979554
C       -3.6964876064   -4.6882478170    1.2932674113
N        1.0070152156   -1.1486482293    0.5379244531
N       -1.6140282846   -3.4871372938    1.1163069128
O       -2.2674937345   -4.6835074508    1.4286905151
F       -7.1997994825    1.3647268464    3.3282626743
H       -4.3515599137   -1.0712805841    0.8344917209
H       -2.7390008064    2.0014791348    3.3897385918
H       -6.6477846331   -0.4954954294    1.6031124873
H       -5.0489038314    2.5767139811    4.1395095107
H       -1.3213008844    0.9373427064    1.6370019950
H       -3.0594911017   -2.3988468159    2.1716922477
H       -3.9691701136   -5.7443406601    1.2600173277
H       -3.9898821466   -4.1977999860    0.3578169663
H       -4.2113069559   -4.2176546958    2.1405757496
24   
torsion grid (60,)
C       -0.1077623922   -1.1632597343    0.9107908241
C       -4.4871306691   -0.3213884981    1.6471514919
C       -3.5857861991    1.4795988431    2.9916910853
C       -5.7761240561    0.0024302077    2.0679493784
C       -4.8661314389    1.8069167693    3.4326721109
C       -3.3671690812    0.3961808958    2.1165203117
C       -5.9412613833    1.0543776465    2.9655747083
C       -1.9978148010    0.0996584690    1.6921610805
C       -2.1315480347   -2.3965856943    1.6677395307
C       -1.4565144806   -1.1199805077    1.4152926111
C       -3.6900866523   -4.6972006529    1.1807917797
N        0.9834051625   -1.1512359409    0.5036212402
N       -1.6270617452   -3.4840402882    1.2061214772
O       -2.3193280174   -4.6557181076    1.5962355035
F       -7.1897388993    1.3701490658    3.3798184721
H       -4.3565232368   -1.1038559064    0.9067490277
H       -2.7372280210    2.0599481545    3.3444897679
H       -6.6458520249   -0.5328405794    1.6998564062
H       -5.0405662613    2.6299365874    4.1184952391
H       -1.3370858008    0.9584135007    1.5943711237
H       -3.0237987640   -2.3756079802    2.2931458854
H       -4.0118120996   -5.7224963546    1.3727508710
H       -3.7700495287   -4.4777113159    0.1094805166
H       -4.3336587793   -4.0139025517    1.7500944446
24   
torsion grid (75,)
C       -0.1401618119   -1.1994691232    0.8988268277
C       -4.5053733598   -0.3380981380    1.6932632437
C       -3.5796023315    1.5019353625    2.9672756267
C       -5.7862478761   -0.0032967050    2.1294483119
C       -4.8513914271    1.8408919192    3.4235064657
C       -3.3774905446    0.3932249731    2.1201640164
C       -5.9344287794    1.0741381890    2.9994183765
C       -2.0165260712    0.0841958304    1.6796361994
C       -2.1486304957   -2.4130710896    1.7244050905
C       -1.4790871833   -1.1422826017    1.4268957134
C       -3.6347084311   -4.7858587320    1.0563403624
N        0.9432109187   -1.1996675653    0.4711077301
N       -1.6556077301   -3.5149018830    1.2876811994
O       -2.3916415965   -4.6478049100    1.7495831017
F       -7.1746170919    1.4012705962    3.4285193908
H       -4.3881778301   -1.1411431174    0.9730077584
H       -2.7249139141    2.0927021335    3.2863753793
H       -6.6623858518   -0.5497219870    1.7945051944
H       -5.0136046817    2.6833319160    4.0884104345
H       -1.3583149576    0.9399143737    1.5444279062
H       -3.0279449303   -2.3870362528    2.3695247238
H       -4.0564553223   -5.7306678845    1.4051004997
H       -3.4711575722   -4.8284581069   -0.0274330668
H       -4.3344198225   -3.9716774158    1.2907777443
24   
torsion grid (90,)
C       -0.1942437621   -1.2189267473    0.9033627068
C       -4.5435122791   -0.3008513253    1.7518940090
C       -3.5732709884    1.5585591799    2.9631439357
C       -5.8118558951    0.0602551633    2.2032865531
C       -4.8321276658    1.9238817524    3.4343614537
C       -3.3995836626    0.4271055426    2.1398866449
C       -5.9317245219    1.1601972765    3.0490856393
C       -2.0498263747    0.0933449878    1.6840448377
C       -2.2032967771   -2.4037340256    1.7664207252
C       -1.5265410806   -1.1420699712    1.4453014935
C       -3.5345901443   -4.9257837805    0.9409007477
N        0.8840923825   -1.2366857343    0.4633366126
N       -1.7177408494   -3.5176192147    1.3521482577
O       -2.4829458186   -4.6157527043    1.8571150359
F       -7.1598548206    1.5125769211    3.4925133071
H       -4.4496501364   -1.1233277562    1.0505820639
H       -2.7060209377    2.1466850413    3.2518039771
H       -6.7002000272   -0.4841262997    1.8986082483
H       -4.9720378576    2.7840997006    4.0813120907
H       -1.3847238285    0.9394922364    1.5242542866
H       -3.0818857459   -2.3721646804    2.4127056021
H       -4.0069645721   -5.8298060780    1.3308378388
H       -3.1353788650   -5.1145229739   -0.0630654963
H       -4.2762500423   -4.1155026589    0.8921050781
24   
torsion grid (105,)
C       -0.2568335310   -1.2456834403    0.9016079269
C       -4.5840331774   -0.2443158140    1.7938468919
C       -3.5624204599    1.6102971249    2.9684051414
C       -5.8391496593    0.1465944476    2.2572793791
C       -4.8073375544    2.0061182304    3.4518129442
C       -3.4208489984    0.4656935597    2.1570712611
C       -5.9262803528    1.2590060209    3.0905746743
C       -2.0832357973    0.1021870006    1.6885266149
C       -2.2786898083   -2.3928624874    1.7829836903
C       -1.5834809780   -1.1438465384    1.4534609767
C       -3.3982715209   -5.1161540250    0.8562483652
N        0.8171459926   -1.2856534512    0.4523525510
N       -1.8040298654   -3.5174821884    1.3835365383
O       -2.5833954974   -4.5905309062    1.9064887512
F       -7.1414477563    1.6404460478    3.5458953224
H       -4.5160872242   -1.0776406359    1.1025860477
H       -2.6802766658    2.1850884283    3.2381762475
H       -6.7416163731   -0.3847584262    1.9716840426
H       -4.9218478611    2.8767850471    4.0897377023
H       -1.4042187558    0.9347247388    1.5163673847
H       -3.1595504751   -2.3503298770    2.4249722869
H       -3.8764384961   -6.0060769575    1.2707519954
H       -2.7873940279   -5.3865056830   -0.0130606390
H       -4.1647768884   -4.3897191831    0.5521177830
24   
torsion grid (120,)
C       -0.3293934946   -1.2791497313    0.8793408313
C       -4.6252639550   -0.1741220875    1.8119540803
C       -3.5452965199    1.6491612968    2.9832330057
C       -5.8658118810    0.2482345546    2.2870247389
C       -4.7754599772    2.0761362973    3.4778735831
C       -3.4406062566    0.5038046870    2.1672501413
C       -5.9167491493    1.3600310745    3.1239882894
C       -2.1166662557    0.1079664212    1.6861603069
C       -2.3734876970   -2.3829888103    1.7607074625
C       -1.6502343986   -1.1490928449    1.4397176062
C       -3.2622643250   -5.3053242732    0.7825349135
N        0.7402482699   -1.3441776812    0.4226227036
N       -1.9187723222   -3.5162043863    1.3594105363
O       -2.7080944207   -4.5711607684    1.8786780615
F       -7.1178269181    1.7719977609    3.5907616617
H       -4.5855276877   -1.0071992054    1.1182646154
H       -2.6461177098    2.1996581156    3.2474515365
H       -6.7841500072   -0.2587284019    2.0077335267
H       -4.8616216439    2.9475685336    4.1192156145
H       -1.4171994653    0.9235779433    1.5152577490
H       -3.2560794142   -2.3276388377    2.3985969110
H       -3.7372364287   -6.1831817264    1.2252491021
H       -2.4750128109   -5.6116365951    0.0847889310
H       -4.0108013722   -4.7039774579    0.2503598376
24   
torsion grid (135,)
C       -0.4009659831   -1.3066133379    0.8562250309
C       -4.6630473961   -0.1030191409    1.8236506814
C       -3.5296981752    1.6764341046    3.0120661858
C       -5.8898581230    0.3468011658    2.3092063065
C       -4.7461347078    2.1303495067    3.5167148874
C       -3.4591317051    0.5386899387    2.1818179510
C       -5.9076704316    1.4495205679    3.1593241167
C       -2.1481720426    0.1142200273    1.6896295562
C       -2.4695901472   -2.3706872742    1.7247201088
C       -1.7167542844   -1.1514722519    1.4227029862
C       -3.1260079263   -5.4619036731    0.7395441625
N        0.6651260088   -1.3943652913    0.3949557150
N       -2.0398870065   -3.5084263695    1.3065437177
O       -2.8417378928   -4.5493333534    1.8064496384
F       -7.0956206944    1.8879671743    3.6363275794
H       -4.6487894870   -0.9287801971    1.1203061038
H       -2.6149875953    2.1993143973    3.2791375034
H       -6.8224957110   -0.1322851332    2.0280618816
H       -4.8062614552    2.9960478038    4.1687197970
H       -1.4270523300    0.9128314190    1.5292697830
H       -3.3520986426   -2.3049861561    2.3613305441
H       -3.6234566270   -6.3140479286    1.2067698545
H       -2.1999634389   -5.7826898654    0.2511780929
H       -3.7913487430   -4.9984570729    0.0012428783
24   
torsion grid (150,)
C       -0.4728016123   -1.3317801682    0.8281898162
C       -4.7002371925   -0.0382895627    1.8317479911
C       -3.5182884374    1.6906820038    3.0470220942
C       -5.9138988219    0.4350021921    2.3280411848
C       -4.7214538403    2.1677826503    3.5621763463
C       -3.4791508973    0.5658287305    2.1973410837
C       -5.9009787334    1.5234838197    3.1963359626
C       -2.1808115943    0.1165952963    1.6935526480
C       -2.5641962337   -2.3602762235    1.6797735482
C       -1.7834826491   -1.1547934393    1.4007859245
C       -2.9981397520   -5.5835891307    0.7306553414
N        0.5897024530   -1.4395065375    0.3628463679
N       -2.1611213323   -3.4987758176    1.2361362423
O       -2.9815499352   -4.5285845698    1.7013925921
F       -7.0762904914    1.9846767918    3.6838678429
H       -4.7091878498   -0.8525247837    1.1150068076
H       -2.5896612884    2.1849352746    3.3205626206
H       -6.8592620255   -0.0150982713    2.0414889827
H       -4.7575681422    3.0237065398    4.2287237022
H       -1.4389434210    0.8987149832    1.5477710354
H       -3.4459026112   -2.2866371499    2.3164694539
H       -3.5380137795   -6.4064599187    1.2028839623
H       -1.9776493973   -5.8902832156    0.4814422248
H       -3.5212694625   -5.2632897073   -0.1772639447
24   
torsion grid (165,)
C       -0.5270704190   -1.3514822748    0.7868134442
C       -4.7225953423    0.0161422726    1.8270490055
C       -3.5003138063    1.6882103467    3.0802999256
C       -5.9246577729    0.5070469820    2.3344551773
C       -4.6918072231    2.1825573812    3.6064457832
C       -3.4872523183    0.5823453269    2.2052529804
C       -5.8864301045    1.5752368264    3.2268607495
C       -2.1999450310    0.1144214913    1.6900055559
C       -2.6400090640   -2.3523904015    1.6133567825
C       -1.8336326643   -1.1584177250    1.3641966662
C       -2.8868602206   -5.6665727307    0.7409059274
N        0.5326606614   -1.4740460781    0.3188013078
N       -2.2654756671   -3.4870911142    1.1356218244
O       -3.1134811863   -4.5065161634    1.5539757485
F       -7.0506950503    2.0533110769    3.7251183248
H       -4.7511491003   -0.7816743272    1.0925601561
H       -2.5602640013    2.1539937752    3.3645842355
H       -6.8803356092    0.0859221379    2.0382185071
H       -4.7074027054    3.0240219951    4.2919461649
H       -1.4390242464    0.8815530077    1.5646784944
H       -3.5210976269   -2.2745118163    2.2503284556
H       -3.5153877428   -6.4486902244    1.1705878657
H       -1.8338672771   -5.9608655118    0.7787924698
H       -3.1817129780   -5.4733682998   -0.2956990381
24   
torsion grid (180,)
C       -0.5822809979   -1.3572029477    0.7264976515
C       -4.7466725941    0.0605959984    1.8161421319
C       -3.4909122569    1.6731423774    3.1137210788
C       -5.9386464807    0.5599079004    2.3388686469
C       -4.6724712776    2.1750445005    3.6550032223
C       -3.5002125501    0.5921737613    2.2081303213
C       -5.8790712873    1.6017939147    3.2607227389
C       -2.2228377359    0.1143983882    1.6773853194
C       -2.7093646999   -2.3411703784    1.5348119363
C       -1.8832370289   -1.1556044434    1.3137449213
C       -2.8124790661   -5.7093272403    0.7860537406
N        0.4736098573   -1.4880572145    0.2520947990
N       -2.3622127046   -3.4662809274    1.0155913531
O       -3.2378051104   -4.4771574542    1.3865139955
F       -7.0334441402    2.0880587278    3.7741213038
H       -4.7913285774   -0.7156722611    1.0596935482
H       -2.5418403249    2.1128075310    3.4094511701
H       -6.9024671815    0.1655698547    2.0323220896
H       -4.6712579088    2.9972295569    4.3636724424
H       -1.4468270387    0.8694963781    1.5731767274
H       -3.5860131287   -2.2652846684    2.1781000049
H       -3.5344103033   -6.4568728975    1.1195652774
H       -1.8071697341   -5.9749013844    1.1264713520
H       -2.8265507602   -5.6295985611   -0.3052789388
