28   
torsion grid (-165,)
C        1.8793721007   -1.8905815144   -0.1221142275
C        5.3795157691   -0.7786695922    6.0523983120
C        0.7567887530   -2.1763638608    0.6606842532
C        2.9244073742   -1.1369311980    0.4241772658
C        4.5840906245   -1.9016810155    5.7918745705
C        4.9399466097    0.4816456301    5.6416849276
C        0.6830526746   -1.7081637228    1.9767148860
C        2.8462694560   -0.6730559961    1.7398449593
C        3.3663287093   -1.7569979153    5.1262533727
C        3.7149744429    0.6206841352    4.9770169219
C        1.7227006016   -0.9503044748    2.5325672019
C        2.9113772150   -0.4951321099    4.7101220004
C        0.9865578382    1.0143408556    3.9080772715
C        1.5948879293   -0.4008559673    3.9524641202
H        1.9427257224   -2.2561076792   -1.1438920018
H        6.3290635685   -0.8871233820    6.5702650189
H       -0.0588667898   -2.7662362202    0.2496050321
H        3.8052391882   -0.9161922613   -0.1739508306
H        4.9148252607   -2.8882321291    6.1072350852
H        5.5484475326    1.3610139741    5.8385224606
H       -0.1935789169   -1.9366703477    2.5804118432
H        3.6717242394   -0.1047763214    2.1604658330
H        2.7595977048   -2.6352710349    4.9149236780
H        3.3922059901    1.6100751290    4.6670167990
H       -0.0494249051    0.9549725614    3.5599886125
H        1.5157592797    1.6545134580    3.1953128689
H        0.9892140320    1.4887596836    4.8943709013
H        0.8714801720   -1.0487609393    4.4615914971
28   
torsion grid (-150,)
C        1.9166662740   -1.8500553455   -0.1429433370
C        5.3878921259   -0.7858569185    6.0519808098
C        0.8043287096   -2.1734764259    0.6393836616
C        2.9445925016   -1.0776741563    0.4098794415
C        4.5438012543   -1.8919818257    5.8964961976
C        4.9968900388    0.4534321035    5.5388503364
C        0.7240062074   -1.7238866564    1.9617230436
C        2.8588672281   -0.6321142706    1.7312864934
C        3.3237923336   -1.7535272536    5.2321155171
C        3.7704435166    0.5858853695    4.8773396929
C        1.7453015243   -0.9465328406    2.5246290606
C        2.9169259225   -0.5138330954    4.7147462479
C        0.9736158945    0.9906872246    3.9318170939
C        1.6038459472   -0.4217719098    3.9547415176
H        1.9858022132   -2.2008984776   -1.1694615102
H        6.3383418716   -0.8900706422    6.5690056305
H        0.0018317338   -2.7779386659    0.2236087239
H        3.8182096595   -0.8281855154   -0.1875752509
H        4.8371619379   -2.8608269060    6.2932413489
H        5.6443067825    1.3194895462    5.6534744904
H       -0.1447886910   -1.9821971053    2.5646727059
H        3.6721994995   -0.0492055967    2.1548562527
H        2.6778356160   -2.6199149187    5.1045732403
H        3.4829933062    1.5575173949    4.4854296525
H       -0.1101397113    0.9003823301    3.8039939190
H        1.3236339034    1.5725335680    3.0740642558
H        1.1571361672    1.5417059380    4.8582165713
H        0.8828998044   -1.0950275151    4.4314097104
28   
torsion grid (-135,)
C        1.9226368324   -1.8108577349   -0.2560302425
C        5.2944505213   -0.6441578323    6.0284738795
C        0.7500272878   -2.0537066072    0.4667258970
C        2.9895817406   -1.1578121916    0.3689899978
C        4.4586711355   -1.7646223094    5.9650988437
C        4.8995946614    0.5421972665    5.4033423578
C        0.6509140721   -1.6415976014    1.7987003532
C        2.8856227769   -0.7474559273    1.7020088431
C        3.2426675530   -1.6933197003    5.2810917502
C        3.6789553612    0.6078280775    4.7232038725
C        1.7126337545   -0.9795752897    2.4337744062
C        2.8324774360   -0.5082053639    4.6524756338
C        0.8000455153    0.8846440988    3.8721105117
C        1.5294678760   -0.4890761306    3.8731187006
H        2.0062913932   -2.1333427460   -1.2907422972
H        6.2409398730   -0.6951777481    6.5605261695
H       -0.0845366661   -2.5677189564   -0.0039971281
H        3.9097519254   -0.9725786313   -0.1800207992
H        4.7535264382   -2.6923986810    6.4492264818
H        5.5413888247    1.4189314486    5.4446014915
H       -0.2648956081   -1.8372263558    2.3538495957
H        3.7298608406   -0.2574774310    2.1776840258
H        2.6024066448   -2.5715884414    5.2283730984
H        3.3900940314    1.5378000578    4.2407002787
H       -0.2750923625    0.7305346625    4.0093901931
H        0.9065430394    1.3959363441    2.9117068188
H        1.1413708716    1.5381945449    4.6782141318
H        0.8534251912   -1.2203251886    4.3283134560
28   
torsion grid (-120,)
C        1.9389955893   -1.7929279976   -0.2784198447
C        5.2692640907   -0.6511096392    6.0446624447
C        0.7718942605   -2.0631092354    0.4438661676
C        2.9924661869   -1.1220665462    0.3499402035
C        4.4060222224   -1.7515912355    6.0254642015
C        4.9069898760    0.5155024121    5.3646016238
C        0.6650913861   -1.6595196041    1.7775849163
C        2.8815653200   -0.7210721997    1.6855689819
C        3.1954972447   -1.6806218204    5.3310837688
C        3.6924250036    0.5807815333    4.6745077050
C        1.7137712593   -0.9795514468    2.4163090467
C        2.8173495612   -0.5157241961    4.6471737992
C        0.7554103342    0.8554104579    3.8885184800
C        1.5171253034   -0.5053987576    3.8583223924
H        2.0286550697   -2.1082144189   -1.3148443801
H        6.2113123419   -0.7015622001    6.5845649245
H       -0.0523888180   -2.5917001576   -0.0288460344
H        3.9085255512   -0.9153412800   -0.1982619411
H        4.6743616462   -2.6640284583    6.5522550638
H        5.5700670869    1.3772178406    5.3703288064
H       -0.2468144018   -1.8751541293    2.3316305859
H        3.7176439475   -0.2190431887    2.1624419152
H        2.5341049193   -2.5445613386    5.3147573386
H        3.4323014575    1.4962641099    4.1496761042
H       -0.2349468411    0.7274188547    4.3356488889
H        0.6031309358    1.2513714053    2.8815713068
H        1.2785936828    1.6095452976    4.4799760153
H        0.8643441490   -1.2529170616    4.3197708172
28   
torsion grid (-105,)
C        1.8331515357   -1.2117079185    0.0382362200
C        5.5277346349    0.3774429371    6.0513998565
C        1.2914854369   -0.1379395194    0.7509920357
C        2.3626861571   -2.3018306022    0.7373304653
C        4.8413918080   -0.6542362766    6.7005700568
C        5.0395046383    0.8648825978    4.8353029233
C        1.2777078340   -0.1559438943    2.1495135917
C        2.3488430858   -2.3117624569    2.1343930046
C        3.6780528028   -1.1845863731    6.1361916373
C        3.8747166448    0.3307319247    4.2742251451
C        1.8050931712   -1.2430106248    2.8621424354
C        3.1750075845   -0.6981105488    4.9197020127
C        0.6557363575   -0.5747651506    5.0789222405
C        1.8599973900   -1.2684954090    4.3792141533
H        1.8411156832   -1.2005589970   -1.0486532641
H        6.4353823163    0.7903204480    6.4842199315
H        0.8786863315    0.7157295919    0.2189271021
H        2.7847032011   -3.1441205166    0.1946391414
H        5.2139976131   -1.0490405133    7.6426913945
H        5.5701045592    1.6595649601    4.3162760072
H        0.8559389780    0.6900941754    2.6857357573
H        2.7706776193   -3.1593716488    2.6706983216
H        3.1522414653   -1.9887950273    6.6480086373
H        3.5198137090    0.7088187146    3.3203015544
H        0.2924966774   -1.1712899216    5.9195088365
H       -0.1708497952   -0.4000218710    4.3853705035
H        0.9458836030    0.4035807470    5.4734185365
H        1.8652255773   -2.3165552932    4.6968068258
28   
torsion grid (-90,)
C        1.9327280469   -1.3078814543   -0.0322880409
C        5.4502964095    0.3114609408    6.0215378071
C        1.2719687937   -0.2659655311    0.6235530716
C        2.5198890661   -2.3306285370    0.7219294509
C        4.8194002132   -0.8015588759    6.5848488939
C        4.8993976864    0.9093169385    4.8824384963
C        1.1965961295   -0.2472105321    2.0209902521
C        2.4444044032   -2.3042747779    2.1158514029
C        3.6472597109   -1.3065960885    6.0122723924
C        3.7285244902    0.4005865605    4.3143994451
C        1.7805388188   -1.2656996785    2.7869546022
C        3.0843903694   -0.7127924494    4.8741889756
C        0.5774951641   -0.4915829376    4.9334989772
C        1.7698131871   -1.2529760049    4.3063510573
H        1.9888802342   -1.3250753460   -1.1176893355
H        6.3638986279    0.7046613037    6.4601136275
H        0.8124954190    0.5343626104    0.0485420590
H        3.0354082736   -3.1477499759    0.2232781073
H        5.2403847282   -1.2794040609    7.4661417057
H        5.3872903534    1.7698618128    4.4309762920
H        0.6787400194    0.5723209295    2.5114817007
H        2.9127321443   -3.0968928930    2.6959590375
H        3.1640407900   -2.1752549806    6.4561959474
H        3.3219907997    0.8627681614    3.4190281733
H        0.3386477670   -0.8908129403    5.9224497366
H       -0.3102978580   -0.5370964926    4.2956655636
H        0.8194662598    0.5687988427    5.0598589620
H        1.7197787675   -2.2894958161    4.6578877501
28   
torsion grid (-75,)
C        1.9318812098   -1.2890016002   -0.0363769833
C        5.4774878072    0.2417084680    6.0165253429
C        1.1833082471   -0.3024865802    0.6091144281
C        2.6040437735   -2.2514585889    0.7275763463
C        4.8136058237   -0.8490866175    6.5858242923
C        4.9459357327    0.8492649700    4.8733961444
C        1.1047308536   -0.2768611746    2.0072318853
C        2.5245839872   -2.2186681597    2.1202005609
C        3.6275162975   -1.3242852265    6.0166190518
C        3.7615753005    0.3701566884    4.3076747472
C        1.7732094897   -1.2336629396    2.7817905332
C        3.0854563564   -0.7207919022    4.8737771614
C        0.5944021305   -0.4191060544    4.9200970878
C        1.7580376759   -1.2194533297    4.3028628967
H        1.9914720353   -1.3107302503   -1.1215219106
H        6.4017436100    0.6104435534    6.4540679843
H        0.6568192996    0.4497016594    0.0266093816
H        3.1892821208   -3.0251287162    0.2366112133
H        5.2203581064   -1.3331700072    7.4703605744
H        5.4587789391    1.6930157986    4.4179323455
H        0.5168589799    0.4992076539    2.4882789470
H        3.0597089213   -2.9612936073    2.7086702896
H        3.1183213682   -2.1755694866    6.4652514449
H        3.3673179299    0.8371747018    3.4090003919
H        0.4946125951   -0.6539411584    5.9832509065
H       -0.3523561022   -0.6346841881    4.4140876995
H        0.7742508304    0.6580971738    4.8403039814
H        1.6574720855   -2.2564627552    4.6446194538
28   
torsion grid (-60,)
C        1.9762460664   -1.3696145081   -0.0391996747
C        5.4966086613    0.1329845132    6.0389246637
C        1.0969642260   -0.4680422035    0.5627335775
C        2.7628013154   -2.2028003866    0.7671336474
C        4.8268689419   -0.9772928047    6.5610140951
C        4.9564888228    0.8075688551    4.9375481820
C        1.0015386552   -0.3974480945    1.9590962653
C        2.6659310612   -2.1255148311    2.1561767075
C        3.6250321325   -1.4049115391    5.9859380245
C        3.7580118707    0.3746690481    4.3658934835
C        1.7839121420   -1.2232157688    2.7753560472
C        3.0751790352   -0.7356995199    4.8849907628
C        0.6023208394   -0.3116782169    4.8730189666
C        1.7380764478   -1.1766688069    4.2997461714
H        2.0499884933   -1.4252076350   -1.1222923928
H        6.4321468440    0.4663689147    6.4808224626
H        0.4802607008    0.1834023545   -0.0517778860
H        3.4520075799   -2.9093227137    0.3110825474
H        5.2400864911   -1.5125895895    7.4124327531
H        5.4739864237    1.6680474840    4.5203271882
H        0.3079613349    0.3100483162    2.4024345988
H        3.2913550597   -2.7643203549    2.7763454840
H        3.1093533365   -2.2707909302    6.3973320854
H        3.3555027860    0.8920787366    3.4985314195
H        0.6115932972   -0.3670964622    5.9655603994
H       -0.3765873345   -0.6554146839    4.5222921734
H        0.7227435336    0.7412246670    4.5995831985
H        1.5610625635   -2.2045525733    4.6398653439
28   
torsion grid (-45,)
C        1.8692238262   -1.3679229274   -0.0231104876
C        5.5581330932   -0.0159258818    6.0354410318
C        0.8656296145   -0.6052162813    0.5763431466
C        2.8140964729   -2.0120366348    0.7857381907
C        4.8652827158   -1.1419139951    6.4879925049
C        5.0083932442    0.7668572085    5.0125241261
C        0.8050690236   -0.4849592743    1.9710982014
C        2.7510845857   -1.8872248284    2.1735123034
C        3.6298538456   -1.4784840624    5.9222232145
C        3.7776313766    0.4245100284    4.4496009925
C        1.7464964548   -1.1208529042    2.7903960345
C        3.0713491033   -0.7017156727    4.8999573462
C        0.6360010718   -0.0817457715    4.8680878428
C        1.7077292454   -1.0423141033    4.3177793410
H        1.9176611698   -1.4603098101   -1.1051447077
H        6.5187320610    0.2477209877    6.4706039234
H        0.1246882918   -0.1004419825   -0.0389390631
H        3.6022352725   -2.6085745049    0.3327357637
H        5.2854292957   -1.7600348988    7.2776633932
H        5.5436199673    1.6413225167    4.6504661041
H        0.0113134116    0.1106013471    2.4104127360
H        3.4983665900   -2.3791600896    2.7915556732
H        3.0956920351   -2.3572970433    6.2784618882
H        3.3661448977    1.0253973943    3.6420191442
H        0.7790352590    0.0422274028    5.9456951459
H       -0.3729789941   -0.4818528122    4.7236466018
H        0.7023632543    0.9107364640    4.4127822801
H        1.4362144148   -2.0506667542    4.6553226983
28   
torsion grid (-30,)
C        1.8269130640   -1.3917819580    0.0059135787
C        5.5739002406   -0.1860209908    6.1191992408
C        0.7156011607   -0.7955289222    0.6067023932
C        2.8943859597   -1.8093349387    0.8082090137
C        4.8338560934   -1.3160153091    6.4756967676
C        5.0543033299    0.7080163771    5.1741212800
C        0.6743675469   -0.6150575484    1.9940096662
C        2.8486999628   -1.6275848629    2.1921734672
C        3.5821256658   -1.5479068958    5.8919478704
C        3.8074112073    0.4703930460    4.5942266565
C        1.7405494256   -1.0228539572    2.8092475206
C        3.0537503697   -0.6606525790    4.9474775136
C        0.6775807447    0.1806001989    4.8192899788
C        1.6836880667   -0.8919540143    4.3359460016
H        1.8620309228   -1.5290959889   -1.0718627369
H        6.5464272994   -0.0032988329    6.5690928582
H       -0.1230636610   -0.4680784241   -0.0030800620
H        3.7662445225   -2.2753149736    0.3553466427
H        5.2289572963   -2.0187905265    7.2051482903
H        5.6250921963    1.5878858064    4.8873106164
H       -0.2033443861   -0.1531465048    2.4354388549
H        3.6890203261   -1.9498990133    2.8004265394
H        3.0120617576   -2.4313534768    6.1724637872
H        3.4177117352    1.1600040741    3.8490305025
H        0.9453621362    0.5022087347    5.8300587412
H       -0.3377819111   -0.2222072786    4.8874809538
H        0.6779541733    1.0672571009    4.1798127874
H        1.3097239177   -1.8640923104    4.6813260648
28   
torsion grid (-15,)
C        1.7824689548   -1.5599940671    0.0293721347
C        5.5800968032   -0.3433244869    6.1234325555
C        0.5749629938   -1.2581545483    0.6692004197
C        2.9606655683   -1.5923382235    0.7786869279
C        4.8338311023   -1.5083467688    6.3182637611
C        5.0495696756    0.6917494744    5.3431554819
C        0.5549499878   -0.9870921089    2.0389547713
C        2.9357937339   -1.3236108429    2.1523901345
C        3.5666496181   -1.6354271171    5.7363459888
C        3.7853032380    0.5586389615    4.7666082426
C        1.7344643056   -1.0099112375    2.8034234521
C        3.0252490178   -0.6070160562    4.9563667444
C        0.7206219857    0.4411947719    4.6534132478
C        1.6591891379   -0.7541614154    4.3149931564
H        1.8022234740   -1.7681841410   -1.0373710754
H        6.5640406344   -0.2405819210    6.5738178443
H       -0.3518870271   -1.2337180235    0.1010798686
H        3.9061872398   -1.8280652250    0.2961440944
H        5.2351308234   -2.3184382816    6.9222021868
H        5.6236793819    1.6011762141    5.1832976087
H       -0.3933030406   -0.7565799822    2.5182325923
H        3.8623560423   -1.3573108004    2.7161393645
H        2.9934861352   -2.5477478187    5.8881771139
H        3.3861335063    1.3635837650    4.1538633120
H        1.1197516283    1.0075944942    5.4992884157
H       -0.2698919031    0.0942245155    4.9615921312
H        0.6086794223    1.1294936702    3.8122463685
H        1.1936515495   -1.6598003800    4.7220113368
28   
torsion grid (0,)
C        1.6649625178   -0.9712821782   -0.0349094718
C        5.3938526349    0.3969735062    6.0758986563
C        1.2908738418    0.0755557931    0.8162549059
C        2.1030527162   -2.1791997968    0.5144114732
C        4.4787421348   -0.3255446592    6.8513618413
C        5.1765270307    0.5187897164    4.7022380037
C        1.3533354000   -0.0884393387    2.2015788683
C        2.1653498000   -2.3353618828    1.9039156869
C        3.3607880642   -0.9078342409    6.2524782841
C        4.0551028950   -0.0711524470    4.1048738027
C        1.7903504665   -1.2976945875    2.7662807649
C        3.1258799375   -0.7861320177    4.8712870415
C        0.5820965835   -1.0625913700    5.0131739055
C        1.8929130669   -1.4727110417    4.2708484816
H        1.6142971969   -0.8454607907   -1.1133950680
H        6.2651496295    0.8538645722    6.5382032201
H        0.9523405677    1.0209301945    0.3992920601
H        2.3955061149   -3.0000702490   -0.1357188754
H        4.6376956252   -0.4362462123    7.9213419292
H        5.8816922543    1.0722451869    4.0867244145
H        1.0705442728    0.7364561162    2.8513701169
H        2.5137768307   -3.2768438444    2.3235756312
H        2.6601284043   -1.4685708535    6.8676850563
H        3.9112906736    0.0279963869    3.0341259193
H        0.7602779872   -0.2780917717    5.7522707586
H        0.1378857200   -1.9193039390    5.5280838859
H       -0.1689035443   -0.6940270677    4.3106925691
H        2.0478208907   -2.5421682530    4.4531635467
28   
torsion grid (15,)
C        1.8930688470   -1.0980836682   -0.0995873638
C        5.4191286411    0.3039601317    6.0570057469
C        1.3368657093   -0.0369997593    0.6210008628
C        2.3925839652   -2.2084770289    0.5896609355
C        4.7010364157   -0.7336217655    6.6608542721
C        4.9736017357    0.8259435591    4.8388615206
C        1.2789740882   -0.0872123514    2.0175883541
C        2.3350959921   -2.2507710010    1.9850052004
C        3.5488511939   -1.2356462400    6.0496257547
C        3.8198835223    0.3197760001    4.2308815940
C        1.7766366650   -1.1947026594    2.7200071502
C        3.0885781863   -0.7148900162    4.8304085186
C        0.5684863742   -0.5603492284    4.9152920684
C        1.7837092275   -1.2554917212    4.2371241156
H        1.9351559699   -1.0616619011   -1.1851398021
H        6.3182988745    0.6949175632    6.5263400656
H        0.9467272099    0.8318019965    0.0963790588
H        2.8251865080   -3.0412238585    0.0406099400
H        5.0402269395   -1.1549334738    7.6041167321
H        5.5290363345    1.6257532716    4.3548723666
H        0.8451871121    0.7481576854    2.5608615726
H        2.7339264726   -3.1138443988    2.5142530341
H        2.9978389344   -2.0443167731    6.5266936098
H        3.4984681178    0.7245883120    3.2760486711
H        0.8322218776    0.4123269948    5.3370095171
H        0.1600630584   -1.1925311698    5.7088523718
H       -0.2472784981   -0.4130922333    4.2013235908
H        1.7655860623   -2.3095895802    4.5330177616
28   
torsion grid (30,)
C        1.9434075415   -1.1108992205   -0.1032443442
C        5.4332116836    0.2601642869    6.0392301041
C        1.2925959367   -0.0797426200    0.5790874181
C        2.5097066467   -2.1644661044    0.6240480009
C        4.7449820181   -0.8234017784    6.5935633901
C        4.9390535900    0.8666891849    4.8792901887
C        1.2065488784   -0.1023482051    1.9759158867
C        2.4232545593   -2.1781319219    2.0175702946
C        3.5722931538   -1.2903655357    5.9914750139
C        3.7668670803    0.3956494611    4.2812614893
C        1.7695252519   -1.1511972243    2.7159291612
C        3.0656453558   -0.6871886518    4.8316568680
C        0.5645898385   -0.4173151603    4.8757149847
C        1.7464278061   -1.1836353594    4.2347498796
H        2.0078680339   -1.0961459762   -1.1882223219
H        6.3476051062    0.6234736577    6.5013082596
H        0.8492289324    0.7442532433    0.0252363390
H        3.0173135045   -2.9738072442    0.1049826660
H        5.1222244076   -1.3078325215    7.4909318592
H        5.4715472793    1.7041450200    4.4348310575
H        0.6964488040    0.7089852149    2.4875506875
H        2.8757801970   -2.9945250069    2.5768442357
H        3.0440715790   -2.1359661715    6.4286896041
H        3.4041219764    0.8637499547    3.3704344920
H        0.7995691764    0.6368399716    5.0436782697
H        0.2902486155   -0.8770352867    5.8295585277
H       -0.3262523099   -0.4761287556    4.2413358420
H        1.6701605833   -2.2285167983    4.5551920335
28   
torsion grid (45,)
C        1.9741995063   -1.1154121521   -0.1378943347
C        5.4465608575    0.1742812519    6.0153923746
C        1.2312776201   -0.1309739332    0.5175957505
C        2.6156848004   -2.1066276844    0.6152738991
C        4.7448493993   -0.9131728681    6.5443335211
C        4.9511229720    0.8245771162    4.8795838036
C        1.1277603542   -0.1360187768    1.9141829962
C        2.5117651596   -2.1041373433    2.0068662821
C        3.5574828524   -1.3412652476    5.9414925441
C        3.7653269078    0.3920120584    4.2802413668
C        1.7658212853   -1.1218338295    2.6781691785
C        3.0512264898   -0.6950561867    4.8055346975
C        0.5683853145   -0.3270627686    4.8146554307
C        1.7219058273   -1.1432035880    4.1989010749
H        2.0527482530   -1.1130895679   -1.2220569238
H        6.3719612911    0.5073809892    6.4783638880
H        0.7285395856    0.6435501172   -0.0565652456
H        3.1962728077   -2.8791941624    0.1170975718
H        5.1227990936   -1.4306661688    7.4227324600
H        5.4936201930    1.6661805661    4.4556040563
H        0.5441821395    0.6384107852    2.4029557673
H        3.0239249352   -2.8692217798    2.5869550461
H        3.0182568073   -2.1900689798    6.3585734581
H        3.3997485313    0.8923413226    3.3873464982
H        0.7632668274    0.7484211145    4.7711141568
H        0.4322678662   -0.6080179037    5.8630638399
H       -0.3757552474   -0.5313080628    4.2979616887
H        1.5855535856   -2.1842862210    4.5145003476
28   
torsion grid (60,)
C        2.0170562772   -1.1952146673   -0.1424787802
C        5.4581318528    0.0705480716    6.0352492428
C        1.1480900747   -0.2885960127    0.4668928183
C        2.7692236650   -2.0671353092    0.6555905320
C        4.7532111169   -1.0362399613    6.5169131172
C        4.9544904724    0.7842043682    4.9412626684
C        1.0290400330   -0.2516479918    1.8626921476
C        2.6488321114   -2.0231713398    2.0442889558
C        3.5530791952   -1.4216237653    5.9093837171
C        3.7574911364    0.3935999024    4.3369362200
C        1.7769319402   -1.1163363200    2.6710331569
C        3.0397348353   -0.7129187438    4.8155115093
C        0.5776844839   -0.2326242995    4.7706069551
C        1.7042347762   -1.1081281308    4.1950180160
H        2.1091534145   -1.2248827563   -1.2251832887
H        6.3924868699    0.3710598655    6.5025097564
H        0.5580476999    0.3927919964   -0.1412977775
H        3.4500258852   -2.7779316284    0.1935957456
H        5.1378189167   -1.6017399823    7.3621848565
H        5.4993442343    1.6423371135    4.5552097444
H        0.3443488914    0.4607543290    2.3119188903
H        3.2478227035   -2.6923232399    2.6585241204
H        3.0100352062   -2.2850991090    6.2894347760
H        3.3834561986    0.9413837694    3.4754960237
H        0.7279610838    0.8234724646    4.5247469753
H        0.5681044007   -0.3116536390    5.8615546565
H       -0.4021943777   -0.5420345192    4.3920643326
H        1.4982936028   -2.1403184738    4.5045067797
28   
torsion grid (75,)
C        1.9505942834   -1.2021766416   -0.1426506339
C        5.5147484695   -0.0627265556    6.0393930702
C        0.9510400098   -0.4296018816    0.4507643278
C        2.8603120647   -1.8875288654    0.6726247924
C        4.7811672601   -1.1755562785    6.4594167564
C        5.0148201216    0.7429636180    5.0088725070
C        0.8595915324   -0.3403072908    1.8462438598
C        2.7661196122   -1.7933584970    2.0609890769
C        3.5553866538   -1.4765546059    5.8542393959
C        3.7932702244    0.4360843061    4.4065700857
C        1.7654249840   -1.0174918285    2.6724353657
C        3.0465450755   -0.6766815694    4.8237480237
C        0.6257008793   -0.0109071963    4.7507114258
C        1.6920340321   -0.9772390492    4.2002064424
H        2.0228679103   -1.2706215235   -1.2251282563
H        6.4681521436    0.1728360868    6.5054088417
H        0.2373019795    0.1070404031   -0.1696857660
H        3.6449938467   -2.4922564904    0.2244960100
H        5.1625030385   -1.8113405419    7.2547289325
H        5.5814935632    1.6075109890    4.6716992478
H        0.0702027341    0.2649372117    2.2800175506
H        3.4862641279   -2.3175053057    2.6847777353
H        2.9896411658   -2.3452951420    6.1855393501
H        3.4205548918    1.0547505073    3.5936645496
H        0.7344831822    0.9853366751    4.3088576704
H        0.7584412653    0.1154111581    5.8286945526
H       -0.3899419913   -0.3666912895    4.5520453322
H        1.3954901465   -1.9896368527    4.5033291553
28   
torsion grid (90,)
C        1.9227399111   -1.2451515665   -0.1205324270
C        5.5350568319   -0.2559262199    6.1110059052
C        0.8137768028   -0.6286372996    0.4636723204
C        2.9545316078   -1.7130018724    0.7005671463
C        4.7585199869   -1.3725997627    6.4301161738
C        5.0630499341    0.6644827440    5.1663762485
C        0.7396259282   -0.4774855708    1.8532209366
C        2.8759888413   -1.5605593851    2.0864730306
C        3.5178628289   -1.5650150969    5.8096955370
C        3.8268984530    0.4661880689    4.5497120345
C        1.7700552590   -0.9355143069    2.6873898255
C        3.0369061914   -0.6511172031    4.8652208940
C        0.6850818450    0.2452310887    4.7008430057
C        1.6779873283   -0.8384974626    4.2148986518
H        1.9834924859   -1.3595742542   -1.1998371127
H        6.4992369045   -0.1039440678    6.5893983083
H        0.0023646285   -0.2623650093   -0.1607135266
H        3.8241743668   -2.1954505922    0.2608939610
H        5.1166937499   -2.0956196005    7.1588475527
H        5.6625335778    1.5341404467    4.9084205042
H       -0.1359740365    0.0013969944    2.2803753566
H        3.6889722560   -1.9220872021    2.7096890441
H        2.9190824821   -2.4380956258    6.0612653656
H        3.4744761660    1.1758949836    3.8048385356
H        0.7347488126    1.1331607879    4.0618822611
H        0.9546379912    0.5824201033    5.7049156929
H       -0.3483963584   -0.1121536703    4.7035734837
H        1.2763132712   -1.8111253961    4.5267581638
28   
torsion grid (105,)
C        1.8709829888   -1.4167958247   -0.0948885474
C        5.5452259073   -0.4149178649    6.1128965678
C        0.6556151445   -1.0979790124    0.5213374354
C        3.0290480782   -1.4939606081    0.6820254709
C        4.7660505691   -1.5641271761    6.2689340389
C        5.0597513578    0.6459966203    5.3380467390
C        0.6080672350   -0.8542878809    1.8955573131
C        2.9763291318   -1.2526400199    2.0600009259
C        3.5109833486   -1.6500018067    5.6541311853
C        3.8073783584    0.5539642075    4.7284669711
C        1.7672821406   -0.9218326374    2.6879328205
C        3.0144415593   -0.5953777453    4.8793519440
C        0.7429266679    0.5126558839    4.5473410749
C        1.6612967145   -0.6968474494    4.2024690534
H        1.9122190600   -1.6037187144   -1.1649456861
H        6.5198947107   -0.3443370088    6.5889089902
H       -0.2559490448   -1.0390603606   -0.0685649890
H        3.9802466714   -1.7435011542    0.2179351256
H        5.1323507968   -2.3940251662    6.8682008194
H        5.6597419279    1.5433856944    5.2079915883
H       -0.3461572241   -0.6102709708    2.3558884579
H        3.8873991742   -1.3211467810    2.6454064450
H        2.9121112484   -2.5502042788    5.7760016867
H        3.4438152927    1.3785194479    4.1195813109
H        0.6681417294    1.2043844102    3.7031041195
H        1.1506720472    1.0842527024    5.3845072062
H       -0.2702482940    0.1930005369    4.8047187830
H        1.1667428420   -1.6007796573    4.5780916318
28   
torsion grid (120,)
C        1.8623431893   -1.4486769673   -0.1105537276
C        5.5092120630   -0.4902365742    6.1244843525
C        0.6291651369   -1.2670975291    0.5272105658
C        3.0361981671   -1.3627855588    0.6403489492
C        4.6965552111   -1.6204880369    6.2459551654
C        5.0608039471    0.6020589816    5.3719828367
C        0.5814089157   -0.9958311719    1.8954248884
C        2.9834005034   -1.0948277647    2.0142180480
C        3.4456632935   -1.6555077870    5.6188530120
C        3.8106853774    0.5604112967    4.7513967937
C        1.7565598507   -0.8984188029    2.6615301938
C        2.9832698874   -0.5685059503    4.8669142948
C        0.7464939015    0.6130773063    4.4728660016
C        1.6370111426   -0.6323231585    4.1675493002
H        1.9042397870   -1.6578608368   -1.1764518678
H        6.4810695160   -0.4587404569    6.6102992638
H       -0.2948681924   -1.3387002605   -0.0414643455
H        4.0010424045   -1.5068946409    0.1600058368
H        5.0335382570   -2.4746513128    6.8280782947
H        5.6869541858    1.4847900287    5.2673640971
H       -0.3851472746   -0.8613036970    2.3763918962
H        3.9078555897   -1.0416379117    2.5794607845
H        2.8218696899   -2.5420391889    5.7130594748
H        3.4790482906    1.4103541580    4.1595414963
H        0.4411685736    1.1262506246    3.5576118403
H        1.2784144602    1.3378981345    5.0928775537
H       -0.1607894760    0.3266721127    5.0120431091
H        1.1177458360   -1.5088951096    4.5714573186
28   
torsion grid (135,)
C        1.4104487032   -2.5226926708    0.2687444329
C        4.9945925832   -0.9373075443    6.3357536482
C        0.7387381162   -2.7516012318    1.4747279175
C        2.2070351785   -1.3819391304    0.1338216022
C        5.1310493544   -1.1838707368    4.9658460647
C        3.8227801924   -0.3399370601    6.8109874595
C        0.8674171453   -1.8466456157    2.5311620875
C        2.3286584216   -0.4777484360    1.1942562751
C        4.1086555001   -0.8338058407    4.0783613009
C        2.8035774274    0.0081980999    5.9196571609
C        1.6606490990   -0.6961824273    2.4080100312
C        2.9324320111   -0.2284498097    4.5429071867
C        2.0278586514    1.7281061426    3.2273794106
C        1.8179593061    0.2325940321    3.5991089890
H        1.3121469469   -3.2240097056   -0.5558921583
H        5.7881471491   -1.2140166853    7.0251910220
H        0.1141689145   -3.6338657033    1.5913745050
H        2.7348319642   -1.1938418552   -0.7980136395
H        6.0336103751   -1.6569758747    4.5863859696
H        3.6997406624   -0.1496185602    7.8744333253
H        0.3491805258   -2.0366628863    3.4689300205
H        2.9541273839    0.4024531977    1.0713026204
H        4.2227876000   -1.0485238616    3.0200233242
H        1.8940433500    0.4706479993    6.2991722939
H        1.7130745326    1.9519280136    2.2054831260
H        3.0672435826    2.0355946447    3.3697899259
H        1.4363628013    2.3599446907    3.8977695287
H        0.9050650766    0.1688464594    4.2002690730
28   
torsion grid (150,)
C        1.3637129780   -2.5299805549    0.3486976252
C        4.9396254635   -0.9460747410    6.3742764655
C        0.7838831594   -2.7732635275    1.5995671288
C        2.0848770270   -1.3506621564    0.1457040465
C        5.1318887957   -1.0817578076    4.9946607023
C        3.7322182398   -0.4270435334    6.8504930820
C        0.9295680931   -1.8438885902    2.6311344217
C        2.2236190415   -0.4212599867    1.1831648050
C        4.1275678803   -0.7002274965    4.1013804996
C        2.7305436948   -0.0462453010    5.9511933429
C        1.6483067836   -0.6535690177    2.4398708878
C        2.9136061811   -0.1738133902    4.5675327479
C        2.0953191195    1.7710869538    3.1982853285
C        1.8228588031    0.3042546677    3.6070238567
H        1.2523557927   -3.2509022079   -0.4571744007
H        5.7192379845   -1.2477012365    7.0691537763
H        0.2189266701   -3.6865407401    1.7694980912
H        2.5399815343   -1.1506756417   -0.8213508169
H        6.0639021714   -1.4927223938    4.6140686865
H        3.5675297926   -0.3220886386    7.9201207597
H        0.4860000188   -2.0451190309    3.6042122416
H        2.7879137903    0.4899357760    1.0055224431
H        4.2821386988   -0.8283434456    3.0334965100
H        1.7925273505    0.3548899019    6.3310539074
H        1.5689258943    2.0507572783    2.2816480712
H        3.1664465189    1.9650582816    3.0894524969
H        1.7548702030    2.4377274504    3.9974686668
H        0.9018438656    0.2947048477    4.2002542866
28   
torsion grid (165,)
C        1.3755402433   -2.5206391126    0.3395871548
C        4.8878062893   -0.9890072824    6.4121984171
C        0.8901898931   -2.8029992202    1.6227190917
C        2.0104661468   -1.2998359382    0.1013216623
C        5.1034684702   -1.1245772890    5.0359959065
C        3.6820303896   -0.4481753697    6.8682247354
C        1.0441384504   -1.8708849936    2.6495435740
C        2.1587430943   -0.3668127623    1.1353301509
C        4.1228520031   -0.7218681413    4.1260165845
C        2.7042175471   -0.0451386185    5.9525815792
C        1.6783179756   -0.6384660560    2.4227519970
C        2.9111483594   -0.1738762214    4.5725993821
C        2.1715025663    1.7739272331    3.1744775185
C        1.8538885239    0.3240576921    3.5887067047
H        1.2579747912   -3.2442180454   -0.4630347067
H        5.6485237271   -1.3073896902    7.1204305805
H        0.3933488864   -3.7495743347    1.8208762146
H        2.3911743605   -1.0689735872   -0.8906815293
H        6.0347627360   -1.5514920819    4.6716063900
H        3.5003380733   -0.3434085247    7.9351053832
H        0.6770314447   -2.1023325200    3.6474511809
H        2.6550766298    0.5764350009    0.9276717640
H        4.2924037695   -0.8492059239    3.0599993880
H        1.7671859984    0.3733815464    6.3157863941
H        1.5052067239    2.1248837784    2.3803760671
H        3.2114198781    1.8781277106    2.8494904637
H        2.0507639607    2.4344063255    4.0389345098
H        0.9101405614    0.3457944340    4.1464598141
28   
torsion grid (180,)
C        1.3211562985   -2.5785434854    0.3868208807
C        4.7996883882   -1.0233123588    6.4795154674
C        1.0075299832   -2.8867661890    1.7170803794
C        1.8171342328   -1.3109609234    0.0778560281
C        5.0721818300   -1.1221779751    5.1098751831
C        3.5732356228   -0.5015040908    6.9006168783
C        1.1936663699   -1.9338824616    2.7181403027
C        1.9987915804   -0.3564683341    1.0877750328
C        4.1260691540   -0.7021555405    4.1724138706
C        2.6300832068   -0.0796195476    5.9569261152
C        1.6911610099   -0.6532784530    2.4210433149
C        2.8937757795   -0.1725343318    4.5843413267
C        2.2621667065    1.7597238059    3.1135340888
C        1.8823733342    0.3388604522    3.5648180265
H        1.1794427399   -3.3189558286   -0.3963315923
H        5.5336666953   -1.3550308658    7.2095056694
H        0.6209066065   -3.8705793208    1.9716365100
H        2.0636074673   -1.0587598476   -0.9507227025
H        6.0208307589   -1.5331073100    4.7729780533
H        3.3484754668   -0.4256421861    7.9617162810
H        0.9631435520   -2.1857316342    3.7511795624
H        2.3833215105    0.6226505027    0.8203988731
H        4.3372746582   -0.8004547686    3.1104060393
H        1.6767033382    0.3249761870    6.2919930365
H        1.5024538352    2.1807283931    2.4462563182
H        3.2231972000    1.7696316428    2.5896176113
H        2.3548921230    2.4143849177    3.9847162099
H        0.9152404417    0.4133491081    4.0775032620
