30   
torsion grid (-165,)
C       -0.5118383574    0.4281107756   -2.7657754654
C       -1.7905515460    1.8344239649   -1.2838885428
C       -0.7890802734    1.2815869135   -3.8347552236
C       -2.0745378894    2.6965004341   -2.3438852094
C       -1.0059386669    0.6834164278   -1.4765672192
C       -1.5806245482    2.4171863962   -3.6245636334
C       -0.3949400182   -0.9226561957    1.9479186947
C       -0.3205616889    0.2966586645    1.0080356286
C       -1.5253149804   -1.8205633799    1.3670295248
C       -0.7302678746   -0.2861991066   -0.3564555493
C       -1.9348216346   -1.1934926016    0.0205008004
C       -3.4587721086    2.7887151934   -5.5923203224
O       -3.1315635543   -0.4337592507    0.2404282354
F       -4.4460619836    2.7705778714   -4.6674454254
F       -3.2986864639    1.5119323318   -6.0099004657
F       -3.8886455448    3.5180086973   -6.6439111537
S       -1.9167509925    3.5410547995   -4.9798937525
H        0.1022222020   -0.4532827592   -2.9370283201
H       -2.1853890929    2.0580533298   -0.2987270860
H       -0.4000984897    1.0689621580   -4.8258661541
H       -2.6836735710    3.5809511164   -2.1833157715
H        0.5595090425   -1.4599120807    1.9345295981
H       -0.5846215420   -0.6334693374    2.9850827317
H       -1.0436066182    1.0557197184    1.3203008577
H        0.6675816928    0.7653437704    0.9830729518
H       -1.1817968965   -2.8489682769    1.2229923788
H       -2.4045276205   -1.8568219499    2.0140647815
H        0.0693260115   -0.9651357365   -0.6826930043
H       -2.1158635629   -1.9494360146   -0.7538574656
H       -3.5279915549   -0.2356774845   -0.6225805098
30   
torsion grid (-150,)
C       -0.4959381290    0.4306693801   -2.7631853115
C       -1.7958945430    1.8272852980   -1.2926245857
C       -0.7642480237    1.2849801377   -3.8342372199
C       -2.0698423050    2.6899151930   -2.3544544265
C       -1.0045250353    0.6803116791   -1.4787753346
C       -1.5616630714    2.4173725852   -3.6313180630
C       -0.3828577734   -0.9208586211    1.9484129915
C       -0.3031677337    0.2939419495    1.0017855620
C       -1.5211100259   -1.8149766678    1.3759346181
C       -0.7326415339   -0.2887106729   -0.3570387973
C       -1.9430640382   -1.1780314737    0.0366030156
C       -3.4252314111    2.7954207120   -5.6131474293
O       -3.1226231808   -0.3900768965    0.2648041102
F       -4.4214377749    2.7817407557   -4.6975842388
F       -3.2662802944    1.5174322530   -6.0278678013
F       -3.8435736077    3.5247616444   -6.6697013225
S       -1.8864425937    3.5432555858   -4.9879836491
H        0.1236937895   -0.4477478692   -2.9298948348
H       -2.2078309126    2.0426921570   -0.3129922506
H       -0.3636766543    1.0752367234   -4.8213232810
H       -2.6843618072    3.5714923975   -2.1987963357
H        0.5681834024   -1.4639726503    1.9364301522
H       -0.5688339625   -0.6244357244    2.9842069313
H       -1.0131032907    1.0645465729    1.3164677901
H        0.6905988467    0.7497426822    0.9651351403
H       -1.1795809071   -2.8428471815    1.2219479326
H       -2.3928639280   -1.8533247928    2.0326054843
H        0.0569951678   -0.9776445949   -0.6867547721
H       -2.1454505731   -1.9306550826   -0.7343563597
H       -3.6514088175   -0.3847698353   -0.5465465194
30   
torsion grid (-135,)
C       -0.6500229036    0.4879977383   -2.8256365879
C       -1.9484624660    1.8241417916   -1.2962372316
C       -0.9920977198    1.3391269279   -3.8782094508
C       -2.2965640917    2.6818628072   -2.3397889208
C       -1.1209358661    0.7100430901   -1.5221686177
C       -1.8254907842    2.4371877217   -3.6365558346
C       -0.2671017707   -0.8003881091    1.9096517546
C       -0.2044085294    0.3609048323    0.8871085666
C       -1.3229149513   -1.8000829739    1.3508206822
C       -0.7589266741   -0.2485155329   -0.4163478092
C       -1.9234310018   -1.1262471410    0.1067772035
C       -3.7737087318    2.7519854906   -5.5468287852
O       -3.0387221800   -0.3099269975    0.5055280524
F       -4.7356890629    2.6946428356   -4.5969401021
F       -3.5792654131    1.4832808236   -5.9749739059
F       -4.2579865082    3.4692465400   -6.5836502301
S       -2.2446571315    3.5573657998   -4.9718263556
H       -0.0035206345   -0.3644208427   -3.0227278230
H       -2.3309924735    2.0142149180   -0.2998891073
H       -0.6209567485    1.1524172897   -4.8812834782
H       -2.9392928290    3.5373206632   -2.1547329982
H        0.7084126472   -1.2875960991    2.0024789276
H       -0.5377046128   -0.4377941077    2.9046333000
H       -0.8498538234    1.1819923427    1.2104763435
H        0.8029336475    0.7661688952    0.7555319097
H       -0.8483300270   -2.7439651382    1.0628715076
H       -2.1145770056   -2.0326219814    2.0663141098
H       -0.0072768957   -0.9472629075   -0.8070832412
H       -2.2435052590   -1.8553322067   -0.6461393995
H       -3.7717472469   -0.4643547416   -0.1058535721
30   
torsion grid (-120,)
C       -0.6867276514    0.5253226423   -2.8881247313
C       -1.9724092217    1.8609272269   -1.3462285570
C       -1.0857731684    1.3413259711   -3.9485833018
C       -2.3783315020    2.6839769062   -2.3962752184
C       -1.1216101533    0.7651465525   -1.5755975668
C       -1.9413843599    2.4206779213   -3.7016148008
C       -0.1690040161   -0.5497878356    1.9144825084
C       -0.0531014099    0.5091858329    0.7816520203
C       -1.1009756411   -1.6633487762    1.3630197504
C       -0.6913675852   -0.1543554548   -0.4605805497
C       -1.8087828351   -1.0244673754    0.1613169543
C       -3.9593021354    2.6394418921   -5.5528463420
O       -2.8835954494   -0.1856787103    0.6234974565
F       -4.8896315880    2.5820498758   -4.5720200977
F       -3.7456001878    1.3657161834   -5.9560026583
F       -4.4943628311    3.3178420492   -6.5911402282
S       -2.4345263746    3.4975607227   -5.0469701901
H       -0.0232027871   -0.3135627088   -3.0868655486
H       -2.3292039431    2.0606636038   -0.3424971457
H       -0.7423351882    1.1417618434   -4.9590644052
H       -3.0393607271    3.5251989594   -2.2101251824
H        0.8081885612   -0.9575622574    2.1884485807
H       -0.5920986910   -0.0995982138    2.8159220204
H       -0.6112117034    1.4101759643    1.0473928117
H        0.9781398128    0.8144126000    0.5833649071
H       -0.5144605676   -2.5231607255    1.0196006283
H       -1.8239546888   -2.0245483134    2.0986319758
H        0.0370537637   -0.8635298258   -0.8736827546
H       -2.1860288608   -1.7650783654   -0.5527657297
H       -3.7149859960   -0.5132254848    0.2554997872
30   
torsion grid (-105,)
C       -0.6941328332    0.5295543444   -2.8915050152
C       -1.9949552880    1.8554701155   -1.3553354222
C       -1.0876116010    1.3486215640   -3.9518637977
C       -2.3948165801    2.6806813267   -2.4059354301
C       -1.1391632558    0.7632236606   -1.5814274299
C       -1.9477476675    2.4251896909   -3.7094225181
C       -0.1515809963   -0.5453749281    1.9013602148
C       -0.0517923213    0.5130629867    0.7671932137
C       -1.0868518842   -1.6613840554    1.3607359533
C       -0.7054051013   -0.1540904926   -0.4654207160
C       -1.8148348414   -1.0216374402    0.1703976057
C       -3.9482722255    2.6462080869   -5.5806921951
O       -2.8737807798   -0.1654580951    0.6354883008
F       -4.8889957225    2.5808735249   -4.6106082525
F       -3.7258651895    1.3753644311   -5.9881453226
F       -4.4742634345    3.3282470000   -6.6215616377
S       -2.4319745170    3.5069571143   -5.0543460497
H       -0.0267528369   -0.3066553511   -3.0886492989
H       -2.3618897648    2.0493590012   -0.3542249468
H       -0.7356109026    1.1532894898   -4.9601789610
H       -3.0602459737    3.5187798652   -2.2216394298
H        0.8297989964   -0.9507310062    2.1637941092
H       -0.5653025060   -0.0962353344    2.8075635181
H       -0.6070278521    1.4141007083    1.0385568981
H        0.9767347980    0.8181226248    0.5549490101
H       -0.5033031286   -2.5200756318    1.0087104915
H       -1.7954640548   -2.0273385052    2.1086495819
H        0.0178164412   -0.8667498855   -0.8812355849
H       -2.2069672650   -1.7574149387   -0.5412986440
H       -3.7191502321   -0.6109467032    0.4880785297
30   
torsion grid (-90,)
C       -0.7020752591    0.5325051246   -2.8965108647
C       -2.0150052316    1.8496233864   -1.3637905203
C       -1.0918693549    1.3543438993   -3.9561604545
C       -2.4114476648    2.6772128149   -2.4136665125
C       -1.1548894806    0.7606078306   -1.5883072795
C       -1.9559562158    2.4279924962   -3.7154767398
C       -0.1435051572   -0.5381706747    1.8914034753
C       -0.0524356154    0.5158778371    0.7528482937
C       -1.0787698198   -1.6582883678    1.3597700480
C       -0.7171766520   -0.1555560964   -0.4719308004
C       -1.8185059488   -1.0235252107    0.1733640989
C       -3.9417324506    2.6497608555   -5.6035006634
O       -2.8709078514   -0.1587153868    0.6319524204
F       -4.8910451591    2.5758432842   -4.6427745613
F       -3.7102326088    1.3820436430   -6.0154229514
F       -4.4607530351    3.3350406939   -6.6459807276
S       -2.4338602926    3.5142052248   -5.0591455718
H       -0.0313968466   -0.3012424975   -3.0929354122
H       -2.3896401351    2.0384164580   -0.3646362059
H       -0.7334683390    1.1633207861   -4.9630242592
H       -3.0809511062    3.5122434428   -2.2302959766
H        0.8401545701   -0.9407295971    2.1495114202
H       -0.5527061555   -0.0865402755    2.7983936873
H       -0.6035279715    1.4191685788    1.0246563115
H        0.9748909359    0.8176831376    0.5302964977
H       -0.4960143570   -2.5167203480    1.0054466099
H       -1.7770937478   -2.0277716707    2.1166005082
H        0.0020838588   -0.8699279509   -0.8910530343
H       -2.2160383403   -1.7611700183   -0.5346749947
H       -3.6801961911   -0.6828933599    0.7163857061
30   
torsion grid (-75,)
C       -0.7016590042    0.5356406325   -2.8971275197
C       -2.0220386796    1.8471566743   -1.3670787316
C       -1.0838119927    1.3612737738   -3.9566793323
C       -2.4115303963    2.6787590209   -2.4162235340
C       -1.1611940941    0.7588049960   -1.5905644740
C       -1.9480784782    2.4347314694   -3.7162741980
C       -0.1571194404   -0.5419283571    1.8899705686
C       -0.0647321748    0.5118193560    0.7520170016
C       -1.0916089112   -1.6618977966    1.3564242784
C       -0.7265348129   -0.1600202594   -0.4743420784
C       -1.8268025574   -1.0308702263    0.1652218915
C       -3.9219382233    2.6682579261   -5.6160565190
O       -2.8836905962   -0.1652387389    0.6074778411
F       -4.8776308873    2.5920952406   -4.6621145077
F       -3.6899110178    1.4020811241   -6.0321396775
F       -4.4325450415    3.3592852010   -6.6590201320
S       -2.4160279745    3.5275795619   -5.0580556923
H       -0.0306053044   -0.2979595161   -3.0926777851
H       -2.4041375873    2.0317164790   -0.3698644532
H       -0.7195563747    1.1736241110   -4.9620886663
H       -3.0821693207    3.5130502111   -2.2337453140
H        0.8263157730   -0.9452653815    2.1475978526
H       -0.5654599222   -0.0905403735    2.7975001041
H       -0.6167547202    1.4148204610    1.0222088815
H        0.9629848978    0.8136049150    0.5312291997
H       -0.5088951946   -2.5219821864    1.0063087234
H       -1.7902745761   -2.0324556582    2.1134563619
H       -0.0058671257   -0.8727843592   -0.8935345009
H       -2.2187532711   -1.7722248951   -0.5432807324
H       -3.6168301136   -0.7199227166    0.9133572674
30   
torsion grid (-60,)
C       -0.9810428163    1.3053533511   -2.6912180719
C       -1.7325558559    2.6847381945   -0.8630748234
C       -1.2653456321    2.3293998818   -3.5972556693
C       -2.0216510250    3.7139444511   -1.7578394829
C       -1.2067429351    1.4623238619   -1.3156596552
C       -1.7818627427    3.5418240176   -3.1279822541
C       -0.1308343373   -0.4212280365    1.8597709106
C        0.0985589095    0.6772478808    0.7843446767
C       -1.3573234426   -1.2378526762    1.3732879514
C       -0.8778654665    0.3338387378   -0.3674016439
C       -2.0644276869   -0.3222328943    0.3657076775
C       -0.5984352381    5.7403073548   -4.2805988183
O       -2.8118116860    0.7081083566    1.0298834353
F        0.4384201545    4.9804129999   -4.7018287743
F       -0.2567408514    6.2188422005   -3.0626654937
F       -0.7093167335    6.7917928732   -5.1220726681
S       -2.1879699890    4.8510464134   -4.2831462461
H       -0.5725243004    0.3682594178   -3.0632989508
H       -1.9338859333    2.8227212990    0.1928788155
H       -1.0798105886    2.1945677815   -4.6584461925
H       -2.4295129749    4.6539236977   -1.3984536989
H        0.7456498668   -1.0643173989    1.9785762330
H       -0.3275510435    0.0343869321    2.8334775821
H       -0.1371071188    1.6640888807    1.1884182177
H        1.1308091781    0.7136045677    0.4251785044
H       -1.0378095989   -2.1531012032    0.8614881000
H       -2.0211074158   -1.5443990421    2.1893875103
H       -0.4288296913   -0.4731073784   -0.9589497549
H       -2.7177460179   -0.8690102485   -0.3275779453
H       -3.4732666062    0.2781761654    1.5932694807
30   
torsion grid (-45,)
C       -0.9818710993    1.3075576324   -2.6907297614
C       -1.7521640688    2.6821999881   -0.8657679960
C       -1.2615149143    2.3328527829   -3.5967710305
C       -2.0367266583    3.7123805957   -1.7607369308
C       -1.2194469492    1.4622303776   -1.3169469581
C       -1.7848928461    3.5429355526   -3.1290380863
C       -0.1573250003   -0.4210919131    1.8629722092
C        0.0739872465    0.6788353416    0.7895758625
C       -1.3827887261   -1.2371299008    1.3713568703
C       -0.8945092217    0.3332183053   -0.3677183648
C       -2.0846264207   -0.3248661458    0.3583413257
C       -0.5960328800    5.7445543197   -4.2698541906
O       -2.8501765399    0.6998502707    1.0112654694
F        0.4447384123    4.9869406691   -4.6854155325
F       -0.2633263043    6.2210494071   -3.0485576656
F       -0.7025456515    6.7975817841   -5.1099136514
S       -2.1843452867    4.8532918712   -4.2851673957
H       -0.5680170621    0.3721625660   -3.0611910995
H       -1.9633411740    2.8164930520    0.1887849130
H       -1.0672894210    2.2005599448   -4.6567215254
H       -2.4505248153    4.6504368562   -1.4031164155
H        0.7186372448   -1.0647765192    1.9819232159
H       -0.3536229995    0.0322119654    2.8381394193
H       -0.1685305647    1.6644135129    1.1926984281
H        1.1083169390    0.7198213778    0.4370634308
H       -1.0611776342   -2.1525331378    0.8618915270
H       -2.0501289372   -1.5471982391    2.1840929283
H       -0.4411443577   -0.4724240168   -0.9580147662
H       -2.7300444373   -0.8774365631   -0.3376478371
H       -3.3458854416    0.2861494699    1.7341008542
30   
torsion grid (-30,)
C       -0.9787518363    1.3083893261   -2.6865202799
C       -1.7712667088    2.6776432688   -0.8673734676
C       -1.2552061609    2.3325120673   -3.5948222125
C       -2.0531688615    3.7062518853   -1.7650508462
C       -1.2286482903    1.4606069982   -1.3145655773
C       -1.7887220156    3.5397844044   -3.1312902333
C       -0.1704563021   -0.4257230606    1.8650634577
C        0.0555953786    0.6810626963    0.7977654145
C       -1.3988684214   -1.2387088307    1.3727055548
C       -0.9062373852    0.3325613118   -0.3634617866
C       -2.0991375437   -0.3263335082    0.3597764820
C       -0.6033329781    5.7515563725   -4.2559680927
O       -2.8818609047    0.6895674652    1.0088892803
F        0.4477325432    5.0018261489   -4.6596982482
F       -0.2883209664    6.2297467313   -3.0305820152
F       -0.7076960401    6.8043426368   -5.0965785996
S       -2.1848204368    4.8488171765   -4.2901537973
H       -0.5573185900    0.3751858896   -3.0538896034
H       -1.9931391037    2.8096354638    0.1852626618
H       -1.0510092321    2.2015658201   -4.6530652187
H       -2.4753208406    4.6417815852   -1.4106637819
H        0.7056302215   -1.0709273279    1.9737411862
H       -0.3580215614    0.0195792151    2.8460217360
H       -0.1977517235    1.6628256910    1.2039661855
H        1.0910840867    0.7330956504    0.4503569798
H       -1.0782919167   -2.1537566823    0.8627652827
H       -2.0675460098   -1.5516066399    2.1836700501
H       -0.4487628958   -0.4725300227   -0.9518301890
H       -2.7415190583   -0.8795102138   -0.3374598236
H       -3.1922317888    0.3364654454    1.8557465604
30   
torsion grid (-15,)
C       -0.9777361979    1.3124791825   -2.6821412014
C       -1.7905308191    2.6764927493   -0.8703363892
C       -1.2528642844    2.3355178709   -3.5920205531
C       -2.0717798057    3.7047192921   -1.7688263394
C       -1.2380122265    1.4617973504   -1.3117162691
C       -1.7962362583    3.5401856732   -3.1330048767
C       -0.1855383425   -0.4316983459    1.8661299170
C        0.0348615670    0.6853180884    0.8083048531
C       -1.4154223496   -1.2423852994    1.3701498043
C       -0.9179767139    0.3348935237   -0.3588388743
C       -2.1147524654   -0.3271798380    0.3595426548
C       -0.6147607116    5.7594470341   -4.2470388103
O       -2.9183284409    0.6738716585    1.0084694627
F        0.4443794116    5.0160974209   -4.6413286285
F       -0.3134329698    6.2396554903   -3.0189608782
F       -0.7180681494    6.8115231281   -5.0886297291
S       -2.1903760886    4.8471312445   -4.2949282448
H       -0.5488228496    0.3817620947   -3.0470715092
H       -2.0217205740    2.8068598145    0.1804003011
H       -1.0401141805    2.2057663607   -4.6487218425
H       -2.5018635058    4.6375925019   -1.4169593754
H        0.6915633569   -1.0771624249    1.9634549486
H       -0.3655265711    0.0022313368    2.8540718320
H       -0.2308274059    1.6621011252    1.2195078665
H        1.0718450216    0.7510418185    0.4680477561
H       -1.0934920729   -2.1553058186    0.8580085614
H       -2.0864413061   -1.5588973844    2.1775358927
H       -0.4539528101   -0.4687099258   -0.9446342096
H       -2.7545204936   -0.8765117526   -0.3412949556
H       -3.0390747252    0.4172319509    1.9340468932
30   
torsion grid (0,)
C       -0.9732116133    1.3138062768   -2.6775863995
C       -1.8016461377    2.6746315632   -0.8697046621
C       -1.2492295599    2.3355287932   -3.5885233059
C       -2.0840229729    3.7017322234   -1.7691484270
C       -1.2407785092    1.4628452437   -1.3083705677
C       -1.8008169187    3.5374196492   -3.1317353081
C       -0.1954236444   -0.4358717307    1.8688081830
C        0.0228646767    0.6887626050    0.8179402021
C       -1.4251900587   -1.2459170299    1.3685539220
C       -0.9225586949    0.3373938815   -0.3542690967
C       -2.1232803651   -0.3273851424    0.3596083028
C       -0.6253572829    5.7629631590   -4.2389070759
O       -2.9484927284    0.6561248078    1.0078920702
F        0.4400510235    5.0253737286   -4.6270269881
F       -0.3337537734    6.2447369772   -3.0090561763
F       -0.7295405025    6.8144712742   -5.0810171486
S       -2.1956957873    4.8420958017   -4.2958164648
H       -0.5382335941    0.3850267639   -3.0402709476
H       -2.0390183997    2.8045300732    0.1797452904
H       -1.0310153698    2.2069654760   -4.6442637305
H       -2.5206341303    4.6324408534   -1.4195780532
H        0.6825264384   -1.0808276673    1.9601839910
H       -0.3716126318   -0.0102824674    2.8615949078
H       -0.2498595368    1.6628912486    1.2322589379
H        1.0611763690    0.7636109372    0.4840969752
H       -1.0997647883   -2.1564480723    0.8548680670
H       -2.0994155707   -1.5639428195    2.1717722820
H       -0.4524713154   -0.4649220507   -0.9372893127
H       -2.7615767660   -0.8702288666   -0.3453667281
H       -2.8876768378    0.5277819681    1.9655035309
30   
torsion grid (15,)
C       -0.9702221021    1.3162793550   -2.6693711950
C       -1.8069631538    2.6743419661   -0.8640553580
C       -1.2485400621    2.3359215535   -3.5818228989
C       -2.0916653229    3.6995082349   -1.7650799224
C       -1.2405006963    1.4644125650   -1.3004792202
C       -1.8057497296    3.5360321277   -3.1271121269
C       -0.2005037222   -0.4468181978    1.8725232325
C        0.0146308356    0.6889892448    0.8323800005
C       -1.4288299357   -1.2566995903    1.3658111629
C       -0.9224249061    0.3393522018   -0.3466755797
C       -2.1260825414   -0.3338460652    0.3592794239
C       -0.6369587358    5.7656583870   -4.2326687411
O       -2.9754234214    0.6262835678    1.0085091695
F        0.4320554910    5.0320429569   -4.6183529312
F       -0.3497691131    6.2488137335   -3.0022771727
F       -0.7434915572    6.8165036635   -5.0751983522
S       -2.2036213698    4.8386621199   -4.2924621738
H       -0.5310412882    0.3889476920   -3.0306662152
H       -2.0467193978    2.8064563873    0.1845463981
H       -1.0279043106    2.2072434852   -4.6370418749
H       -2.5325758258    4.6286579788   -1.4168415542
H        0.6797196861   -1.0896202998    1.9561791124
H       -0.3745933506   -0.0332555857    2.8711421479
H       -0.2642735322    1.6592783106    1.2529945663
H        1.0542328499    0.7738766664    0.5053712434
H       -1.0996969158   -2.1647325889    0.8503691846
H       -2.1067837176   -1.5745137412    2.1648915503
H       -0.4441899009   -0.4595915885   -0.9278647861
H       -2.7610939840   -0.8710761735   -0.3510583933
H       -2.7524244683    0.6481578372    1.9508704432
30   
torsion grid (30,)
C       -0.9722288552    1.3166789922   -2.6609321823
C       -1.8004633758    2.6764893208   -0.8534484066
C       -1.2549460567    2.3349251085   -3.5733826305
C       -2.0893399126    3.7009551806   -1.7539078697
C       -1.2360115770    1.4661528395   -1.2908410768
C       -1.8098803924    3.5354892341   -3.1169260652
C       -0.2123628373   -0.4616594963    1.8798542254
C        0.0050927729    0.6858991371    0.8520855799
C       -1.4331791551   -1.2737772703    1.3574404219
C       -0.9181831497    0.3399883765   -0.3391820357
C       -2.1256051879   -0.3474417418    0.3492856362
C       -0.6425608752    5.7601020016   -4.2325345904
O       -3.0045821344    0.5858332523    0.9930972382
F        0.4215305648    5.0231929835   -4.6255127475
F       -0.3454287954    6.2424806806   -3.0041728039
F       -0.7519662533    6.8109989205   -5.0744286836
S       -2.2123062636    4.8375106869   -4.2812138687
H       -0.5348865460    0.3888357022   -3.0230897168
H       -2.0342057911    2.8141780830    0.1959421621
H       -1.0394085148    2.2050257708   -4.6295059852
H       -2.5281085561    4.6306664861   -1.4045252802
H        0.6715149698   -1.0993872207    1.9634903339
H       -0.3951904405   -0.0600671929    2.8819435071
H       -0.2788348086    1.6526777057    1.2791037426
H        1.0472132740    0.7795570177    0.5360294236
H       -1.0953472636   -2.1787627033    0.8421447216
H       -2.1195975543   -1.5915055679    2.1480449515
H       -0.4272055759   -0.4523877810   -0.9185095945
H       -2.7499500994   -0.8815377602   -0.3714053908
H       -2.6556410450    0.7762032842    1.8774555605
30   
torsion grid (45,)
C       -0.9717428762    1.3136012033   -2.6597228468
C       -1.8083549887    2.6733323261   -0.8557047714
C       -1.2522252821    2.3311545940   -3.5735063121
C       -2.0953084251    3.6967753844   -1.7579259393
C       -1.2414299167    1.4633585582   -1.2906830546
C       -1.8108049334    3.5310293064   -3.1197754709
C       -0.2132734663   -0.4684404516    1.8783523821
C        0.0026293612    0.6806860594    0.8506738766
C       -1.4304388744   -1.2846329295    1.3550914515
C       -0.9246521085    0.3368646370   -0.3390350590
C       -2.1281072972   -0.3561666695    0.3509658387
C       -0.6436875093    5.7587590845   -4.2283535338
O       -3.0213519371    0.5582783641    0.9984435736
F        0.4244790450    5.0244145098   -4.6147426220
F       -0.3552897181    6.2420297182   -2.9982359374
F       -0.7510087930    6.8090799839   -5.0709877166
S       -2.2107807264    4.8319629947   -4.2860316429
H       -0.5323135973    0.3859585805   -3.0197904988
H       -2.0433574303    2.8171935586    0.1928100138
H       -1.0322723092    2.2010990546   -4.6286921699
H       -2.5360150344    4.6262292680   -1.4104272777
H        0.6734197700   -1.1019113412    1.9637688838
H       -0.4007445914   -0.0675576452    2.8797131919
H       -0.2742173688    1.6496047378    1.2794407275
H        1.0433626502    0.7738801041    0.5302023748
H       -1.0885966741   -2.1865111670    0.8364458669
H       -2.1165747213   -1.6027942742    2.1447782962
H       -0.4332317186   -0.4545956281   -0.9187041769
H       -2.7526935948   -0.8910671189   -0.3681020354
H       -2.5721165456    0.9269470570    1.7754642430
30   
torsion grid (60,)
C       -1.3575552649    0.2081350993   -2.9029033847
C       -0.5444141688    2.2151488544   -1.8423345112
C       -1.5211822395    0.9110688823   -4.1001292858
C       -0.7080180165    2.9257337869   -3.0298360151
C       -0.8690285004    0.8495468360   -1.7543917440
C       -1.2062034903    2.2722593428   -4.1650511094
C       -1.4833138951   -0.4501201640    1.8176844547
C       -1.6076270284    0.6319697065    0.7077196366
C       -0.7107569948   -1.6346654044    1.1690197535
C       -0.6657714899    0.1506950372   -0.4267420684
C       -0.7974375765   -1.3849009355   -0.3441301256
C       -3.0935772285    3.7550079942   -5.5060803494
O       -2.0251294438   -1.8949522331   -0.8892768242
F       -3.2576944730    4.5509077032   -4.4244703358
F       -3.9925233254    2.7518000208   -5.3868397752
F       -3.4182777437    4.4740498189   -6.6024957094
S       -1.3820668662    3.1651849346   -5.7095002768
H       -1.6219681200   -0.8415544410   -2.8591367445
H       -0.1519225210    2.7305011124   -0.9683023112
H       -1.8998900260    0.4038150679   -4.9824486414
H       -0.4544847896    3.9802075384   -3.0808725705
H       -0.9488953280   -0.0658067806    2.6904922960
H       -2.4700026254   -0.7628000756    2.1723830820
H       -2.6344973000    0.7055480552    0.3300486333
H       -1.3423849364    1.6316555198    1.0604442426
H        0.3390244102   -1.6242737526    1.4814617647
H       -1.1207975478   -2.6148113718    1.4249529219
H        0.3611364545    0.3686250498   -0.1017323364
H       -0.0138437447   -1.8994889626   -0.9054260161
H       -2.7687350363   -1.4486673802   -0.4538806578
30   
torsion grid (75,)
C       -1.2245457747    0.1937873588   -2.9192621920
C       -0.6441612429    2.2343205270   -1.7743144049
C       -1.3892837008    0.9106294498   -4.1079048795
C       -0.8051334942    2.9583628470   -2.9541098754
C       -0.8529441233    0.8441414781   -1.7328173261
C       -1.1881274383    2.2945387256   -4.1273586770
C       -1.4002748793   -0.4724297225    1.8459318851
C       -1.4699283162    0.6474526562    0.7707695474
C       -0.7852589021   -1.7082074648    1.1310348805
C       -0.6359831177    0.1128891031   -0.4238696855
C       -0.9019289630   -1.4049730748   -0.3701707069
C       -3.1117174327    3.6986410984   -5.4983794787
O       -2.1881438196   -1.7859864282   -0.8847172911
F       -3.3466319875    4.4751522439   -4.4152184550
F       -3.9564262581    2.6468729221   -5.4097823395
F       -3.4467180954    4.4092593562   -6.5970372567
S       -1.3655985964    3.2052852992   -5.6610393018
H       -1.4079770541   -0.8741371994   -2.9139360997
H       -0.3443009300    2.7605084000   -0.8712782624
H       -1.6834456513    0.3968332543   -5.0181843403
H       -0.6395517164    4.0312742905   -2.9691806664
H       -0.7863422434   -0.1672588070    2.6976016538
H       -2.3951320131   -0.6943752098    2.2421955431
H       -2.5029952203    0.8302642751    0.4503327054
H       -1.0937881240    1.6055773113    1.1370669021
H        0.2716255305   -1.8189996509    1.3982782534
H       -1.2883834284   -2.6468856253    1.3742983898
H        0.4231494317    0.2332682695   -0.1558843250
H       -0.1838047516   -1.9750074821   -0.9655802748
H       -2.8485412618   -1.1373509692   -0.5941014451
30   
torsion grid (90,)
C       -1.1416177390    0.3510201600   -3.0563095553
C       -0.8085998786    2.3605429126   -1.7687898190
C       -1.3440223959    1.1197912109   -4.2048077664
C       -1.0062952210    3.1377299658   -2.9097128143
C       -0.8708293482    0.9573576692   -1.8194478852
C       -1.2823501954    2.5159158744   -4.1339536468
C       -1.4039230506   -0.5093705928    1.6897050983
C       -1.2438086177    0.7095273880    0.7364873103
C       -0.8801325550   -1.7309511181    0.8976674390
C       -0.6034399970    0.1475606845   -0.5664259889
C       -1.0358599709   -1.3326544366   -0.5744432571
C       -3.2991081723    3.7915540556   -5.4984955805
O       -2.3843522986   -1.5336099780   -1.0272271122
F       -3.6585672520    4.4632214601   -4.3800769171
F       -4.0243925043    2.6510932976   -5.5136859881
F       -3.6693360935    4.5340155918   -6.5639615334
S       -1.5040300029    3.5017806335   -5.6146132924
H       -1.2175370598   -0.7281591964   -3.1254116374
H       -0.5986065012    2.8576848071   -0.8257930672
H       -1.5609683179    0.6378377457   -5.1532756592
H       -0.9536743388    4.2206949063   -2.8534236183
H       -0.8586838536   -0.3711254112    2.6270595385
H       -2.4558014473   -0.6490916930    1.9546375415
H       -2.2139759229    1.1686878028    0.5158516754
H       -0.6258016406    1.4968733693    1.1751733449
H        0.1812418520   -1.9040395586    1.1125438851
H       -1.4213961312   -2.6547856670    1.1147421663
H        0.4847971350    0.1333889767   -0.4156059332
H       -0.4118250175   -1.9450767483   -1.2324117780
H       -2.8973836548   -0.7250761849   -0.8748889194
30   
torsion grid (105,)
C       -1.0839111651    0.3926300745   -3.0431466868
C       -0.8607826829    2.3980043234   -1.7257659533
C       -1.3003918247    1.1637977496   -4.1867117143
C       -1.0726122256    3.1782635705   -2.8627310135
C       -0.8602663759    0.9946622983   -1.7939455339
C       -1.3004299441    2.5605392457   -4.0985018679
C       -1.3400569152   -0.4728137911    1.7208663455
C       -1.1511026564    0.7469474451    0.7753468543
C       -0.9104728489   -1.7105997035    0.8992131262
C       -0.5816654287    0.1702030517   -0.5519903027
C       -1.0834834749   -1.2880022724   -0.5627620811
C       -3.3535854958    3.7461287373   -5.4859570921
O       -2.4584489897   -1.4117458785   -0.9626189705
F       -3.7688873142    4.3804091846   -4.3654147560
F       -4.0154983156    2.5683102625   -5.5311371693
F       -3.7427814414    4.4833471804   -6.5479263757
S       -1.5434422177    3.5541144285   -5.5706824989
H       -1.1067517470   -0.6884564160   -3.1276313093
H       -0.6901250175    2.8930713912   -0.7742235426
H       -1.4807782697    0.6840708581   -5.1438730299
H       -1.0692699847    4.2617403425   -2.7934722794
H       -0.7540096996   -0.3748118191    2.6386159172
H       -2.3878382532   -0.5603820541    2.0200724443
H       -2.1067228109    1.2500178051    0.5921670554
H       -0.4820501205    1.4993291058    1.2008332509
H        0.1441670788   -1.9508681571    1.0805030257
H       -1.4998507154   -2.6034761808    1.1209119792
H        0.5097583158    0.1052751701   -0.4436168885
H       -0.5024531108   -1.9218041690   -1.2414627909
H       -2.8619163646   -0.5319185990   -1.0112521477
30   
torsion grid (120,)
C       -1.0319539099    0.4069616557   -3.0287926386
C       -0.9038802596    2.4118528799   -1.6995078257
C       -1.2577417235    1.1741502707   -4.1728358608
C       -1.1241829546    3.1893194625   -2.8372171026
C       -0.8511807014    1.0099307512   -1.7723566540
C       -1.3094379701    2.5697563591   -4.0788876780
C       -1.2930801419   -0.4374081679    1.7540988172
C       -1.0844547434    0.7756542227    0.8053980261
C       -0.9335770495   -1.6885923299    0.9203743955
C       -0.5675514905    0.1815562590   -0.5336049893
C       -1.1234221428   -1.2579000495   -0.5357303518
C       -3.3807175099    3.6888950055   -5.4933032065
O       -2.5180505495   -1.3180199399   -0.8766306288
F       -3.8337301309    4.3084029253   -4.3793768564
F       -4.0000711235    2.4885636270   -5.5470948352
F       -3.7794970899    4.4117953415   -6.5612663611
S       -1.5637308003    3.5603472873   -5.5512385706
H       -1.0068469743   -0.6740784314   -3.1202245891
H       -0.7673945149    2.9087548410   -0.7438176451
H       -1.4043220892    0.6925288042   -5.1347719969
H       -1.1608583653    4.2718971312   -2.7634366158
H       -0.6786147596   -0.3645596318    2.6556385104
H       -2.3351543238   -0.4857788606    2.0795746465
H       -2.0286977721    1.3060455617    0.6452409944
H       -0.3804768127    1.5051296190    1.2147981695
H        0.1146496889   -1.9723005902    1.0737934075
H       -1.5525478981   -2.5577475944    1.1558488157
H        0.5235134669    0.0773023486   -0.4554030407
H       -0.5803609463   -1.9114966941   -1.2289839482
H       -2.8239152059   -0.4374644535   -1.1424098735
30   
torsion grid (135,)
C       -0.6514428566    0.2824102521   -2.7856725979
C       -1.4968981940    1.9930597434   -1.3152082573
C       -0.9220534492    1.0840038958   -3.8918832161
C       -1.7736144462    2.8072040404   -2.4183386832
C       -0.9358413739    0.7173337497   -1.4789371337
C       -1.4940774308    2.3517073088   -3.7097741116
C       -0.6403075130   -0.8548848841    2.0117529581
C       -0.5997866247    0.3833012502    1.0944495460
C       -1.4445506707   -1.9288174401    1.2247001401
C       -0.6784760623   -0.2170339194   -0.3190686941
C       -1.7557792724   -1.3257097899   -0.1584293050
C       -3.5110004798    2.8767987454   -5.4980237407
O       -3.0857879869   -0.7892671934   -0.1431248623
F       -4.3719694538    3.0994793812   -4.4796931899
F       -3.6013327207    1.5626834408   -5.8019428834
F       -3.9391494081    3.5816137648   -6.5664597853
S       -1.8080694859    3.4086975122   -5.1232916748
H       -0.2121641422   -0.7012273966   -2.9362330043
H       -1.7080572272    2.3737464793   -0.3209541091
H       -0.6982336100    0.7328623413   -4.8945183370
H       -2.2071881060    3.7923419224   -2.2760934162
H        0.3770746548   -1.2111737892    2.2044065954
H       -1.0874561157   -0.6277019717    2.9829615624
H       -1.4728296140    1.0129534250    1.2917036334
H        0.2925163483    0.9997610957    1.2382763594
H       -0.8646073527   -2.8508340803    1.1144008747
H       -2.3855361219   -2.1919955711    1.7128642801
H        0.2660754225   -0.7421981823   -0.5139952483
H       -1.6878775273   -2.0660750636   -0.9651591819
H       -3.0808587969    0.0872996613   -0.5603919998
30   
torsion grid (150,)
C       -0.5883239617    0.3084750003   -2.7578529423
C       -1.5793136067    1.9347323310   -1.2822741890
C       -0.8707487664    1.1172535431   -3.8567937297
C       -1.8678335084    2.7550446866   -2.3769593891
C       -0.9380393503    0.6969296845   -1.4527109941
C       -1.5216220183    2.3446610078   -3.6680941973
C       -0.5612442471   -0.8856964146    2.0218994413
C       -0.5022953282    0.3499735620    1.1027699190
C       -1.4713836555   -1.9085738574    1.2837279826
C       -0.6764779708   -0.2467316626   -0.3035223226
C       -1.8044281447   -1.2968373431   -0.0894316058
C       -3.5125764838    2.7870892057   -5.5046241596
O       -3.0979674701   -0.6872689135   -0.0013961264
F       -4.4135502714    2.9358546601   -4.5074165401
F       -3.5154848588    1.4763811082   -5.8366610081
F       -3.9526022828    3.4875315327   -6.5709677166
S       -1.8558929467    3.4108924886   -5.0698643101
H       -0.0865141176   -0.6439352626   -2.9136541946
H       -1.8453298493    2.2788796974   -0.2879009563
H       -0.5950340148    0.8016119932   -4.8583250776
H       -2.3641157958    3.7093960894   -2.2296836110
H        0.4434168034   -1.3013525062    2.1533504465
H       -0.9364658523   -0.6370408091    3.0180263581
H       -1.3338033213    1.0205904994    1.3371211335
H        0.4258447836    0.9204433022    1.2028437129
H       -0.9633759820   -2.8698900258    1.1589022777
H       -2.4054042347   -2.1002708405    1.8167383637
H        0.2281678815   -0.8227485642   -0.5396178260
H       -1.8082675474   -2.0416451090   -0.8961005947
H       -3.1299304287    0.0640404418   -0.6171140674
30   
torsion grid (165,)
C       -0.5510570449    0.3662459162   -2.7730935581
C       -1.6804375031    1.8896902421   -1.2869277519
C       -0.8359179079    1.1958080789   -3.8570005474
C       -1.9732119669    2.7281823056   -2.3654501495
C       -0.9670854952    0.6926975415   -1.4711370950
C       -1.5580786210    2.3795968682   -3.6554526236
C       -0.4829600347   -0.9060226646    1.9785668455
C       -0.4115313643    0.3240224412    1.0536997068
C       -1.5124899462   -1.8632074982    1.3135798132
C       -0.6978051347   -0.2654826506   -0.3375014046
C       -1.8688005390   -1.2516883518   -0.0542629684
C       -3.4862056930    2.7559013229   -5.5726787456
O       -3.1223293495   -0.5750824819    0.0900255201
F       -4.4406571723    2.8013614310   -4.6159430971
F       -3.3823055421    1.4622611726   -5.9537347776
F       -3.9249789020    3.4671937774   -6.6323762399
S       -1.8993622024    3.4728413019   -5.0345872622
H        0.0070000075   -0.5524283699   -2.9395729992
H       -2.0038219316    2.1819953348   -0.2930444385
H       -0.5063878224    0.9285251980   -4.8563293806
H       -2.5268620193    3.6488747410   -2.2083387249
H        0.4992988558   -1.3875157669    2.0334466973
H       -0.7643665583   -0.6369209519    3.0001258815
H       -1.1912397758    1.0395440318    1.3290649543
H        0.5504767600    0.8431664293    1.0969298110
H       -1.0972869979   -2.8676111656    1.1882849637
H       -2.4299069905   -1.9605907759    1.8985637685
H        0.1592165154   -0.8909434851   -0.6208620259
H       -1.9458274401   -2.0058704171   -0.8487234390
H       -3.2438788401    0.0079041181   -0.6784396135
30   
torsion grid (180,)
C       -0.5250138680    0.3991072938   -2.7689496707
C       -1.7403531459    1.8547756383   -1.2830905266
C       -0.8059541043    1.2446399644   -3.8425881113
C       -2.0284308104    2.7090147450   -2.3493058592
C       -0.9850249277    0.6841860335   -1.4727718967
C       -1.5672677687    2.4018036204   -3.6350541558
C       -0.4378709088   -0.9126549821    1.9679951103
C       -0.3535704698    0.3062014737    1.0286359666
C       -1.5230263271   -1.8378522419    1.3471543893
C       -0.7118035928   -0.2815279062   -0.3472691570
C       -1.9048130494   -1.2215912738   -0.0119253159
C       -3.4668149684    2.7847616435   -5.5802216833
O       -3.1269126035   -0.4977772805    0.1727629270
F       -4.4393948516    2.7958919449   -4.6402897623
F       -3.3359749239    1.5007157690   -5.9850119799
F       -3.8987045423    3.5099215556   -6.6335417649
S       -1.9017840452    3.5153400416   -4.9994953792
H        0.0652374712   -0.4983339503   -2.9402770682
H       -2.1060588353    2.1069343693   -0.2931855971
H       -0.4423792079    1.0094833938   -4.8381959470
H       -2.6141939589    3.6089231131   -2.1879425570
H        0.5277744174   -1.4286424257    1.9971228271
H       -0.6769959533   -0.6237451829    2.9949416773
H       -1.0955920586    1.0542539578    1.3214407380
H        0.6280070814    0.7890987036    1.0320149455
H       -1.1468204977   -2.8561498154    1.2127500129
H       -2.4216821041   -1.9005658585    1.9649483643
H        0.1126847948   -0.9378148822   -0.6569097974
H       -2.0382715109   -1.9796165033   -0.7947166794
H       -3.3767625143   -0.1046206160   -0.6798320974
