16   
torsion grid (-165,)
C       -2.4475489541    1.3248286599   -0.9996431286
C       -0.3803383314   -0.4330932676    1.3815620266
C        0.9145614243    0.3750056017    1.2727379232
C       -0.0346149340   -0.6126992292   -1.0372051056
C       -1.0977242346   -0.2924543040    0.0331618984
N       -1.5865442229    1.0881795829   -0.0976610042
S        1.5788362253    0.0383781570   -0.4173280854
H       -2.8159519390    2.3452466702   -1.1283573284
H       -2.8651915689    0.5566669233   -1.6705283799
H       -0.1537606845   -1.4893473687    1.5634249345
H       -1.0097900788   -0.0663274889    2.1986961598
H        0.7135028435    1.4433684808    1.3712658245
H        1.6569148219    0.0722174303    2.0143830850
H        0.0409561001   -1.6948130154   -1.1755699690
H       -0.2770182978   -0.1502321723   -1.9961462102
H       -1.9285980817   -1.0069210430   -0.0562974220
16   
torsion grid (-150,)
C       -2.5165565037    1.3154848573   -0.9460213967
C       -0.4030067835   -0.4056186595    1.3525544403
C        0.9190899068    0.3610714780    1.2866996653
C        0.0403984620   -0.6207504092   -1.0522650128
C       -1.0604323376   -0.2727805373   -0.0282378131
N       -1.5001604485    1.1123243608   -0.2132110701
S        1.6523613722   -0.0452223758   -0.3567817173
H       -2.8509211634    2.3409273283   -1.1199468940
H       -3.1002117032    0.5111757679   -1.4223109650
H       -0.2159763400   -1.4650534703    1.5592898816
H       -1.0555242563   -0.0093672767    2.1376113007
H        0.7470721594    1.4371705942    1.3474889982
H        1.6149434444    0.0563137190    2.0714763514
H        0.0791623117   -1.7033241149   -1.2013882927
H       -0.1440024786   -0.1371146290   -2.0134927742
H       -1.8985455545   -0.9772330157   -0.1449694830
16   
torsion grid (-135,)
C       -2.5671676708    1.3142762907   -0.8739460920
C       -0.4327620852   -0.3748380245    1.3144406868
C        0.9109812894    0.3558679379    1.2920413727
C        0.1138473097   -0.6439306652   -1.0695385842
C       -1.0243541350   -0.2658821233   -0.0991405251
N       -1.4335434321    1.1156800462   -0.3383002427
S        1.7091634247   -0.1164268891   -0.3012317459
H       -2.8884137830    2.3389752524   -1.0749511689
H       -3.2628033795    0.5061002463   -1.1515718952
H       -0.2825010168   -1.4331652568    1.5540801267
H       -1.1112394213    0.0547181418    2.0590472802
H        0.7671862598    1.4375754190    1.3177804092
H        1.5603291838    0.0540187857    2.1169195893
H        0.1284810320   -1.7266433482   -1.2210984552
H       -0.0143341670   -0.1520896784   -2.0357768594
H       -1.8651793213   -0.9662325174   -0.2322586777
16   
torsion grid (-120,)
C       -2.5910724250    1.3236853894   -0.7858594954
C       -0.4678969505   -0.3500369205    1.2679575368
C        0.8852075558    0.3636563083    1.2888846067
C        0.1807216752   -0.6795929452   -1.0865506404
C       -0.9924013245   -0.2721576415   -0.1756086091
N       -1.3823211962    1.1042995912   -0.4658783410
S        1.7471463371   -0.1581564038   -0.2549470612
H       -2.9108387523    2.3469702908   -0.9963242542
H       -3.3534835528    0.5325950757   -0.8692348056
H       -0.3406218460   -1.4040662974    1.5377047499
H       -1.1755909618    0.1034178827    1.9698627318
H        0.7564149107    1.4476482383    1.2834174487
H        1.4928213596    0.0731358255    2.1488766357
H        0.1913394728   -1.7643515693   -1.2223031292
H        0.1023057118   -0.1991051030   -2.0638100489
H       -1.8340399266   -0.9699381041   -0.3196921059
16   
torsion grid (-105,)
C       -2.5904125991    1.3375117855   -0.6909295030
C       -0.5069910119   -0.3316115833    1.2166220518
C        0.8461245900    0.3803434138    1.2793036209
C        0.2397272565   -0.7186739364   -1.1015376382
C       -0.9673584703   -0.2889577136   -0.2514330930
N       -1.3512161636    1.0784412717   -0.5953930478
S        1.7697886939   -0.1759180712   -0.2161179121
H       -2.9066945333    2.3587856074   -0.9158373193
H       -3.3838972367    0.5828622224   -0.5671503234
H       -0.3920068199   -1.3792067188    1.5151679570
H       -1.2447955114    0.1373115042    1.8758978748
H        0.7220558877    1.4646365934    1.2471490174
H        1.4166163389    0.1064023641    2.1696282865
H        0.2579029267   -1.8059405980   -1.2136000936
H        0.2023587862   -0.2573014569   -2.0903406715
H       -1.8035120467   -0.9906810671   -0.4049339880
16   
torsion grid (-90,)
C       -2.5611265589    1.3598495235   -0.5949708271
C       -0.5482898476   -0.3278748979    1.1638516117
C        0.7911895957    0.4061477785    1.2639592560
C        0.2880100121   -0.7577538109   -1.1127320387
C       -0.9519084719   -0.3170660935   -0.3217624659
N       -1.3395379660    1.0381522779   -0.7228994921
S        1.7744305632   -0.1544841428   -0.1919848336
H       -2.8740161814    2.3740528435   -0.8539133775
H       -3.3451053920    0.6686165986   -0.2448407146
H       -0.4266802765   -1.3681996571    1.4843619872
H       -1.3176104675    0.1385990658    1.7878452583
H        0.6530242894    1.4883521958    1.2137516579
H        1.3339626629    0.1531859068    2.1774801432
H        0.3298899017   -1.8476866416   -1.1856868027
H        0.2783413017   -0.3290437971   -2.1166141538
H       -1.7768830777   -1.0268435323   -0.4893499898
16   
torsion grid (-75,)
C       -2.5102723539    1.3882521636   -0.5092661128
C       -0.5894359072   -0.3385146937    1.1167280578
C        0.7265826438    0.4330496521    1.2465997819
C        0.3250255689   -0.7880334965   -1.1214624631
C       -0.9467276129   -0.3548161794   -0.3806420523
N       -1.3549801850    0.9805124680   -0.8429159068
S        1.7630446644   -0.1035202168   -0.1818361121
H       -2.8314917417    2.3844272856   -0.8223369188
H       -3.2314058274    0.7940816808    0.0753674489
H       -0.4490382802   -1.3708129560    1.4550302590
H       -1.3868264437    0.1131513903    1.7159398136
H        0.5599197760    1.5112630626    1.1891887152
H        1.2512855900    0.1999711065    2.1757524866
H        0.4031332908   -1.8779875805   -1.1535643401
H        0.3304186169   -0.3928911030   -2.1387910784
H       -1.7515417115   -1.0801289666   -0.5672963602
16   
torsion grid (-60,)
C       -2.4464277665    1.4258043353   -0.4483219181
C       -0.6244631853   -0.3651323535    1.0820405644
C        0.6593195499    0.4559540916    1.2341868443
C        0.3473574259   -0.8045686706   -1.1262828442
C       -0.9534934746   -0.3995730584   -0.4218479666
N       -1.4031908728    0.9017164840   -0.9471192356
S        1.7317671661   -0.0116502877   -0.1932499110
H       -2.7901584577    2.3864721038   -0.8392145692
H       -3.0510882219    0.9752494383    0.3544697557
H       -0.4522592456   -1.3909150907    1.4250835311
H       -1.4433015066    0.0540297791    1.6753390906
H        0.4506334685    1.5278740467    1.1930104039
H        1.1829641477    0.2307438016    2.1658034850
H        0.4773114427   -1.8900587728   -1.1133142330
H        0.3514869565   -0.4479168219   -2.1574529373
H       -1.7287673389   -1.1500254080   -0.6266348414
16   
torsion grid (-45,)
C       -2.3713349069    1.4684213869   -0.4148248266
C       -0.6539332562   -0.4039213004    1.0608213244
C        0.5904731683    0.4739814086    1.2284279090
C        0.3550107739   -0.8067441983   -1.1289633150
C       -0.9709804314   -0.4492723044   -0.4450154312
N       -1.4757935821    0.8075910213   -1.0248208113
S        1.6799001085    0.1002265069   -0.2152768588
H       -2.7510027553    2.3823514825   -0.8782036422
H       -2.8094794499    1.1929451085    0.5558741103
H       -0.4373780671   -1.4234527482    1.3970352914
H       -1.4893733115   -0.0336097162    1.6628157494
H        0.3323230681    1.5360147539    1.2171734077
H        1.1265743169    0.2507023549    2.1533259051
H        0.5462607715   -1.8819804570   -1.0765747819
H        0.3472812945   -0.4851545566   -2.1712646754
H       -1.7108576539   -1.2300951254   -0.6640341365
16   
torsion grid (-30,)
C       -2.2920729922    1.5008177792   -0.3981097856
C       -0.6790869023   -0.4399717872    1.0503610358
C        0.5257255750    0.4911440840    1.2264088273
C        0.3511378136   -0.7967482916   -1.1321978628
C       -0.9942092445   -0.4983585921   -0.4549116768
N       -1.5657308413    0.7078421005   -1.0715549563
S        1.6209715887    0.1982013748   -0.2327816853
H       -2.7219932146    2.3682700923   -0.9049419747
H       -2.5290908607    1.3915134202    0.6693934204
H       -0.4150316590   -1.4509914079    1.3779598396
H       -1.5290632528   -0.1193438341    1.6607708361
H        0.2229843732    1.5413486517    1.2390151587
H        1.0773763891    0.2745825736    2.1436981976
H        0.5991590390   -1.8590667238   -1.0592444107
H        0.3295125904   -0.4960159790   -2.1803831944
H       -1.6928983143   -1.3152198435   -0.6769865505
16   
torsion grid (-15,)
C       -2.2229257221    1.5193252349   -0.4061835745
C       -0.7032494872   -0.4635292055    1.0492210141
C        0.4810278712    0.4945115454    1.2376958226
C        0.3403755149   -0.7708651662   -1.1370734319
C       -1.0174022177   -0.5407271581   -0.4547808581
N       -1.6691562647    0.6079690021   -1.0933716755
S        1.5622813286    0.2888687924   -0.2475828927
H       -2.7098719636    2.3433292259   -0.9334312904
H       -2.2564864921    1.5540924818    0.6909442609
H       -0.4162552723   -1.4675322786    1.3788350723
H       -1.5653302033   -0.1662672160    1.6552405128
H        0.1567010131    1.5363765806    1.2952500197
H        1.0523109976    0.2591823622    2.1382846477
H        0.6401041117   -1.8194212182   -1.0612327917
H        0.3013537144   -0.4772224255   -2.1868708117
H       -1.6657868414   -1.4000869400   -0.6684488051
16   
torsion grid (0,)
C       -2.1660128943    1.5262298999   -0.4437843705
C       -0.7256282362   -0.4782084541    1.0575715360
C        0.4602808150    0.4811481130    1.2619067348
C        0.3199835223   -0.7274419259   -1.1404541739
C       -1.0436334006   -0.5791101933   -0.4451605573
N       -1.7827265266    0.5060999699   -1.0933588573
S        1.4753182601    0.4231204148   -0.2831378097
H       -2.7103507575    2.3082539843   -0.9787388956
H       -2.0008524487    1.6931633637    0.6284057055
H       -0.4422137047   -1.4793662231    1.3980773115
H       -1.5956238547   -0.1768455265    1.6504901224
H        0.1348205484    1.5116646912    1.4211751147
H        1.0745037551    0.1817028455    2.1140404653
H        0.6858140509   -1.7538768076   -1.0526844295
H        0.2554425806   -0.4543946808   -2.1948864069
H       -1.6314316219   -1.4841358538   -0.6429662709
16   
torsion grid (15,)
C       -2.1083418980    1.5235790415   -0.5006328698
C       -0.7506011798   -0.4916252504    1.0742562349
C        0.4482834752    0.4568642804    1.2903332151
C        0.2933890119   -0.6700797736   -1.1384078544
C       -1.0714540202   -0.6161982135   -0.4287698611
N       -1.8935836956    0.4091587166   -1.0693435360
S        1.3544894831    0.5835326638   -0.3164327787
H       -2.7048782953    2.2706539484   -1.0297883017
H       -1.7497364886    1.8038716014    0.4975923396
H       -0.4860262961   -1.4910419368    1.4334914895
H       -1.6258288865   -0.1698398886    1.6479779014
H        0.1353136553    1.4628193549    1.5800012425
H        1.1201629585    0.0775848937    2.0637083897
H        0.7363428053   -1.6644587052   -1.0359615724
H        0.2024246917   -0.4236902839   -2.1979610754
H       -1.5922652336   -1.5631268315   -0.6135677445
16   
torsion grid (30,)
C       -2.0537590993    1.5215285978   -0.5570509233
C       -0.7652869825   -0.5152445418    1.0977043984
C        0.4334593223    0.4372030124    1.3172494724
C        0.2634660422   -0.6167155651   -1.1372747158
C       -1.0903907828   -0.6452190554   -0.4055970870
N       -1.9934433370    0.3349912789   -1.0088232557
S        1.2730153057    0.6736811281   -0.3121156954
H       -2.7056255849    2.2361840238   -1.0658293598
H       -1.5154211667    1.8946801688    0.3219858136
H       -0.5022206592   -1.5115662023    1.4659361372
H       -1.6452925333   -0.1875051128    1.6597004333
H        0.1218868815    1.4206132265    1.6785811979
H        1.1412370890    0.0240404071    2.0395901079
H        0.7567248133   -1.5894360322   -1.0589087074
H        0.1456528710   -0.3589937612   -2.1918415978
H       -1.5563120920   -1.6202379555   -0.5868110000
16   
torsion grid (45,)
C       -2.0000027321    1.5392970427   -0.6025685619
C       -0.7544380472   -0.5660356553    1.1207034980
C        0.3959736469    0.4385350376    1.3450663919
C        0.2332905421   -0.5844164256   -1.1371212066
C       -1.1036300492   -0.6603427865   -0.3790189008
N       -2.0730889499    0.3054059815   -0.9034167811
S        1.2808445246    0.6479311923   -0.2636665042
H       -2.7283746989    2.2194129548   -1.0526495253
H       -1.2703935555    1.9906003025    0.0781042379
H       -0.4318017417   -1.5589412865    1.4496444086
H       -1.6383573895   -0.2989953934    1.7078345608
H        0.0313032146    1.4183214881    1.6647517356
H        1.0953769598    0.0786405596    2.1031777918
H        0.7245022310   -1.5612034836   -1.1300476482
H        0.0915071637   -0.2662032029   -2.1722039953
H       -1.5450210315   -1.6440027082   -0.5720942828
16   
torsion grid (60,)
C       -1.9367536723    1.5561964983   -0.6302133218
C       -0.7303217233   -0.6269068083    1.1419747503
C        0.3354520309    0.4546500669    1.3646437200
C        0.2044523282   -0.5584032480   -1.1342411461
C       -1.1173900336   -0.6769358149   -0.3493964573
N       -2.1300924229    0.3047584919   -0.7560097134
S        1.3305464741    0.5559985890   -0.1856138727
H       -2.7403500812    2.2281617747   -0.9448975058
H       -1.0171146741    2.0297078627   -0.2685346919
H       -0.3159933498   -1.6038988491    1.4123705211
H       -1.6116750740   -0.4556467471    1.7681344194
H       -0.1115154010    1.4312270559    1.5699284840
H        0.9926447553    0.2018104819    2.1998277928
H        0.6723647157   -1.5413980160   -1.2328461912
H        0.0400282704   -0.1456793679   -2.1319832192
H       -1.5565920551   -1.6556383530   -0.5666483496
16   
torsion grid (75,)
C       -1.8809454481    1.5522845038   -0.6720811209
C       -0.7159180048   -0.6731930891    1.1635090020
C        0.2880935353    0.4595404114    1.3825658071
C        0.1843206902   -0.5206978260   -1.1236864707
C       -1.1264751187   -0.6853426408   -0.3231919298
N       -2.1629954982    0.3132090872   -0.6051804851
S        1.3557571983    0.4994344601   -0.1181333107
H       -2.7028673602    2.2534720349   -0.8408574963
H       -0.8699667687    1.9771333248   -0.6159823134
H       -0.2416977542   -1.6326460170    1.3950651193
H       -1.5930043849   -0.5643889698    1.8095037865
H       -0.2124651295    1.4244512811    1.5056390625
H        0.9120444126    0.2826051352    2.2614081692
H        0.6388633205   -1.4975461975   -1.3069332065
H        0.0032898877   -0.0348401333   -2.0853496269
H       -1.5683434901   -1.6554717480   -0.5697997676
16   
torsion grid (90,)
C       -1.8670446056    1.5507170941   -0.7457512132
C       -0.6998554640   -0.7124025029    1.1854485229
C        0.2758076283    0.4422892376    1.4159978829
C        0.1713931903   -0.4812120151   -1.1055547592
C       -1.1288358551   -0.6681958591   -0.2956441792
N       -2.1707671333    0.3469595182   -0.4691079705
S        1.3575619804    0.4964361509   -0.0756046386
H       -2.6774280112    2.2803432634   -0.8224291423
H       -0.8480620348    1.9177676492   -0.9289591650
H       -0.1963361018   -1.6657038845    1.3757110452
H       -1.5705309325   -0.6444303109    1.8450305152
H       -0.2502868107    1.3948784312    1.5268639638
H        0.8972380178    0.2835903475    2.2999248076
H        0.6176499407   -1.4542891525   -1.3251409244
H       -0.0143445257    0.0335196056   -2.0515716345
H       -1.5884691956   -1.6222639555   -0.5727178921
16   
torsion grid (105,)
C       -1.8846971649    1.5570800312   -0.8390829950
C       -0.6810045511   -0.7473437163    1.2035485727
C        0.2859321307    0.4097008335    1.4648416520
C        0.1667530477   -0.4467083243   -1.0794382394
C       -1.1282992819   -0.6296635591   -0.2668474994
N       -2.1518296929    0.4134596627   -0.3531508702
S        1.3428890940    0.5359263805   -0.0444906247
H       -2.6786745210    2.3080257158   -0.8550781545
H       -0.9092484017    1.8596931916   -1.2404561738
H       -0.1644526998   -1.7026387619    1.3418504933
H       -1.5428480157   -0.7153002980    1.8765528395
H       -0.2523002447    1.3492466673    1.6159108945
H        0.9255539629    0.2273523433    2.3308902826
H        0.6096507786   -1.4231768430   -1.2909749977
H       -0.0076165599    0.0600812698   -2.0319473517
H       -1.6221177931   -1.5577309760   -0.5756326095
16   
torsion grid (120,)
C       -2.0444460492    1.4736385603   -0.8893305064
C       -0.3804520436   -0.4571623725    1.3820411873
C        0.7348091679    0.5463269729    1.0721076977
C       -0.2640680903   -0.7861770497   -1.0370868442
C       -1.2512764404   -0.5413744803    0.1154943617
N       -2.1003926948    0.6511234685    0.0766186884
S        1.2421346577    0.2212572780   -0.6774914492
H       -2.7005454845    2.3472104633   -0.8616919742
H       -1.3743217772    1.3901875925   -1.7533981166
H        0.0488444863   -1.4424963125    1.5904802941
H       -0.9778852106   -0.1436752805    2.2426508095
H        0.3727513046    1.5739519766    1.1585242394
H        1.6025344239    0.4195171304    1.7226115541
H        0.0059412808   -1.8450145273   -1.0653258754
H       -0.6665933852   -0.5178502343   -2.0166978625
H       -1.9393440580   -1.3914595683    0.1969890149
16   
torsion grid (135,)
C       -2.1267788765    1.4529548181   -0.9504453639
C       -0.3669086645   -0.4710852538    1.3948261400
C        0.7793265322    0.5087739132    1.1224007018
C       -0.2344719241   -0.7463261707   -1.0257883250
C       -1.2251926792   -0.4842249826    0.1197061427
N       -2.0132986599    0.7522584404    0.1012403542
S        1.2857642185    0.2258759458   -0.6361099423
H       -2.7444100248    2.3534577772   -0.9081070674
H       -1.6400426907    1.2394015660   -1.9103296638
H        0.0313731441   -1.4746788388    1.5767429878
H       -0.9629076021   -0.1641321811    2.2584972843
H        0.4426237810    1.5423398345    1.2355605694
H        1.6398879665    0.3398493921    1.7728601210
H        0.0087861342   -1.8117357756   -1.0566960996
H       -0.6101470130   -0.4635248465   -2.0111345832
H       -1.9559135546   -1.3012000211    0.1732719627
16   
torsion grid (150,)
C       -2.2166683924    1.4199038588   -0.9968868320
C       -0.3582241588   -0.4724113644    1.4045693987
C        0.8265620946    0.4692340595    1.1711266797
C       -0.1959204411   -0.7023837805   -1.0209428388
C       -1.1940174765   -0.4280190986    0.1171742178
N       -1.9191736116    0.8505223478    0.0965574971
S        1.3619452212    0.1849873697   -0.5774852392
H       -2.7843119695    2.3528611592   -0.9586072174
H       -1.9430647440    1.0565204025   -1.9968245580
H        0.0001821003   -1.4932364679    1.5744264756
H       -0.9581637707   -0.1592070414    2.2633680017
H        0.5215554452    1.5122724833    1.2861935647
H        1.6653733083    0.2638952312    1.8393796885
H       -0.0013779174   -1.7763200831   -1.0856989246
H       -0.5385114446   -0.3654219403   -2.0007552544
H       -1.9584941558   -1.2151935188    0.1409005591
16   
torsion grid (165,)
C       -2.2994025247    1.3784940027   -1.0251658317
C       -0.3562006022   -0.4656927180    1.4081952390
C        0.8686280039    0.4307142328    1.2149291167
C       -0.1528197744   -0.6556252179   -1.0218082089
C       -1.1632805533   -0.3742861421    0.1064658993
N       -1.8130278869    0.9479831227    0.0642750273
S        1.4399939196    0.1338265932   -0.5182262045
H       -2.8003849203    2.3495100312   -1.0268259876
H       -2.2644264437    0.8445434520   -1.9864000459
H       -0.0423919688   -1.5019537267    1.5739510049
H       -0.9613746721   -0.1389232904    2.2587448422
H        0.6000772032    1.4835963901    1.3280133003
H        1.6794183770    0.1876038873    1.9048693434
H       -0.0073091387   -1.7336987479   -1.1315668371
H       -0.4649859725   -0.2536739780   -1.9872456740
H       -1.9548229589   -1.1344142740    0.0942902353
16   
torsion grid (180,)
C       -2.3730733676    1.3435635479   -1.0273163645
C       -0.3639876085   -0.4535899504    1.4013105822
C        0.8980931031    0.3979263944    1.2488342076
C       -0.1022856838   -0.6224172691   -1.0270234071
C       -1.1326195053   -0.3267776409    0.0805433747
N       -1.6950673279    1.0338088878   -0.0004868921
S        1.5073081621    0.0917689386   -0.4687983827
H       -2.7980942386    2.3476852577   -1.0958553043
H       -2.5755037675    0.6630747293   -1.8696251500
H       -0.0947537689   -1.5020936446    1.5690169480
H       -0.9768866589   -0.1100359444    2.2402526032
H        0.6650654448    1.4587560684    1.3615159923
H        1.6787498416    0.1184675487    1.9595421049
H        0.0061738582   -1.7023095684   -1.1603406834
H       -0.3869436972   -0.1798902360   -1.9836823708
H       -1.9484846983   -1.0599335020    0.0286079605
