10   
torsion grid (-165,)
C        1.7778363411   -0.1901353169   -0.8648208905
C       -1.2335917530    0.1263353143    0.9854985313
N        0.9692695875    0.0206179960    0.1079516079
N       -0.3109849896   -0.4453963416    0.0131267681
H        2.8055532907    0.1430089835   -0.7483828576
H        1.4878515345   -0.6850243564   -1.8007324375
H       -2.1860873081   -0.4071902127    0.9163855386
H       -0.8232266595   -0.0236447671    1.9863697449
H       -1.4143158114    1.2017456468    0.8384285123
H       -0.6794103199   -0.5149223668   -0.9363610027
10   
torsion grid (-150,)
C        1.7497303947   -0.1587150327   -0.8597558634
C       -1.2220639892    0.1310396765    0.9678357965
N        0.9941014922   -0.1110036012    0.1743146516
N       -0.2977721296   -0.5532675275    0.0676111367
H        2.7891061980    0.1358948995   -0.7412479387
H        1.4082868216   -0.4978492417   -1.8470044550
H       -2.1967243780   -0.3618618784    0.9072590623
H       -0.8464554368    0.0386787338    1.9892484346
H       -1.3441497130    1.1994481981    0.7350927306
H       -0.6411653477   -0.5969696471   -0.8958900404
10   
torsion grid (-135,)
C        1.7107916597   -0.1209630811   -0.8424166562
C       -1.1993663723    0.1346135017    0.9428865813
N        1.0181244402   -0.2391106784    0.2280631123
N       -0.2893795325   -0.6644743221    0.1206739294
H        2.7597613071    0.1481811690   -0.7451859757
H        1.3103923824   -0.3155662132   -1.8471148424
H       -2.2010028278   -0.2995114554    0.8750088754
H       -0.8658652932    0.0867170346    1.9821371070
H       -1.2409043500    1.1907064728    0.6371595862
H       -0.6096575016   -0.6951978490   -0.8537482025
10   
torsion grid (-120,)
C        1.6635639514   -0.0850791292   -0.8114053126
C       -1.1668977930    0.1376833304    0.9099815908
N        1.0394533561   -0.3747161821    0.2670760218
N       -0.2905637093   -0.7720856363    0.1642032997
H        2.7197146072    0.1666725923   -0.7411527552
H        1.2012385303   -0.1279568555   -1.8080889377
H       -2.1923662417   -0.2369900762    0.8444390294
H       -0.8605322217    0.1414479224    1.9590157572
H       -1.1311722265    1.1708847000    0.5324558940
H       -0.5895443404   -0.7944660867   -0.8190610726
10   
torsion grid (-105,)
C        1.6096115969   -0.0510422352   -0.7706692013
C       -1.1257575103    0.1411043214    0.8699381281
N        1.0595470918   -0.5104113394    0.2871490133
N       -0.2993022884   -0.8735310508    0.2011204858
H        2.6696743261    0.1941416110   -0.7299328577
H        1.0840719254    0.0585310502   -1.7309533160
H       -2.1722884478   -0.1710837118    0.8105422978
H       -0.8351907126    0.1971413992    1.9223562154
H       -1.0150644111    1.1424190457    0.4253530876
H       -0.5824076578   -0.9018745112   -0.7874403381
10   
torsion grid (-90,)
C        1.6213289163    0.1275948528   -0.6950033887
C       -1.0948990310    0.1495929656    0.6805362262
N        1.0070449933   -0.7550110228   -0.0097803709
N       -0.4166881283   -0.7676567160   -0.2557546479
H        2.6988438123    0.2161282936   -0.5591203917
H        1.1164334919    0.7927371358   -1.4046099686
H       -2.1728530709   -0.0182400106    0.5965425148
H       -0.7859400771    0.0048399121    1.7267480593
H       -0.8892304249    1.1851396608    0.3962262791
H       -0.6911465694   -1.7097304921    0.0216792033
10   
torsion grid (-75,)
C        1.5963417767    0.1406503776   -0.6605182118
C       -1.0720692186    0.1563204082    0.6397760129
N        0.9952570334   -0.8431197247   -0.1114988118
N       -0.4243166881   -0.8322330701   -0.2428750561
H        2.6826062810    0.1670646558   -0.5913429407
H        1.0833846294    0.9504343374   -1.1912990705
H       -2.1502537013   -0.0273948315    0.6174605607
H       -0.7163635510    0.0973376476    1.6793923181
H       -0.8988159703    1.1689618646    0.2676473351
H       -0.7028766790   -1.7526270857    0.0907213789
10   
torsion grid (-60,)
C        1.5879383954    0.1436259814   -0.6167445224
C       -1.0623911374    0.1668168535    0.5982823450
N        0.9691068804   -0.9046992455   -0.2224807579
N       -0.4339085732   -0.8717577367   -0.2357059177
H        2.6746391176    0.0967686501   -0.6437263668
H        1.1006377676    1.0749680992   -0.9230266950
H       -2.1231222481   -0.0791457484    0.6987835687
H       -0.6082336830    0.2314438091    1.5982079381
H       -0.9974140805    1.1470189607    0.1195491495
H       -0.7143585265   -1.7796450441    0.1243247735
10   
torsion grid (-45,)
C        1.5801754163    0.1420996570   -0.5633345730
C       -1.0537550304    0.1776020428    0.5554744235
N        0.9401148540   -0.9433063399   -0.3246612885
N       -0.4397590761   -0.9006484310   -0.2297196870
H        2.6573712299    0.0601115104   -0.6877934861
H        1.1243975053    1.1330304051   -0.6461734813
H       -2.0791386433   -0.1176700489    0.7921520828
H       -0.5046490926    0.3711525412    1.4892621465
H       -1.1047809198    1.1075420439   -0.0183954137
H       -0.7270823311   -1.8045188014    0.1306527915
10   
torsion grid (-30,)
C        1.5664111770    0.1416457157   -0.5310028350
C       -1.0434300786    0.1852135845    0.5290602576
N        0.9124381590   -0.9585120204   -0.4193288817
N       -0.4402672032   -0.9279178642   -0.2013786642
H        2.6260933779    0.0585048628   -0.7588142756
H        1.1393851320    1.1418641395   -0.4227357957
H       -2.0527074510   -0.1097935075    0.8260854551
H       -0.4638896663    0.4559961154    1.4256259376
H       -1.1310361932    1.0714822357   -0.1077470655
H       -0.7201033415   -1.8330886823    0.1576993823
10   
torsion grid (-15,)
C        1.5615121991    0.1400010151   -0.5129697711
C       -1.0401331802    0.1909874836    0.5153750336
N        0.8881497001   -0.9564728182   -0.4982639159
N       -0.4264062708   -0.9473411517   -0.1496035659
H        2.5948137533    0.0723066100   -0.8428998464
H        1.1701568070    1.1239275532   -0.2449330482
H       -2.0482176477   -0.0961809326    0.8231727531
H       -0.4736213065    0.5208289514    1.4015067744
H       -1.1260640193    1.0386090007   -0.1737282861
H       -0.7072961228   -1.8612711323    0.1798073873
10   
torsion grid (0,)
C        1.6109808028   -0.0556875190   -0.4669970763
C       -0.9075538659   -0.1799257819    0.8070651235
N        0.5469221799    0.1404813611   -1.1697503433
N       -0.6643712311    0.0878029567   -0.5922947002
H        2.5587428139    0.0006523223   -0.9944392528
H        1.6249347541   -0.2709123981    0.6035738353
H       -1.9855109457   -0.1579545304    0.9809898027
H       -0.5266382964   -1.1685434190    1.1028350003
H       -0.4350493569    0.5753714677    1.4522363302
H       -1.4295629426    0.2541101198   -1.2257552045
10   
torsion grid (15,)
C        1.5961972076   -0.0601634513   -0.4609468621
C       -0.9030227711   -0.1940747849    0.7939427934
N        0.5411001484    0.1155560657   -1.1765413125
N       -0.6915172349   -0.0897613148   -0.6411096457
H        2.5512710869    0.0763016209   -0.9612423226
H        1.6031191794   -0.3560034573    0.5904605904
H       -1.9793530575   -0.2041126882    0.9805213199
H       -0.4849826020   -1.1314576942    1.1778133465
H       -0.4490203915    0.6415431757    1.3512009653
H       -1.3908976532    0.4275671077   -1.1566353577
10   
torsion grid (30,)
C        1.6034916898   -0.0762243235   -0.4705617948
C       -0.9102078365   -0.1805000335    0.7973430303
N        0.5442703025    0.1908104080   -1.1467584815
N       -0.6864193790   -0.1462077278   -0.6466618649
H        2.5548592609    0.1618540346   -0.9395567721
H        1.6180895238   -0.5263354631    0.5252766478
H       -1.9883055903   -0.1979238004    0.9742541683
H       -0.4871405689   -1.0885819282    1.2389987944
H       -0.4711374489    0.6919641972    1.3063086470
H       -1.3846060412    0.3965392159   -1.1411788597
10   
torsion grid (45,)
C        1.6219282918   -0.1009661608   -0.4915154927
C       -0.9272213132   -0.1570769905    0.8080379245
N        0.5545681721    0.2732287100   -1.0960534393
N       -0.6696117125   -0.1805730342   -0.6373862506
H        2.5677323682    0.2292044185   -0.9146048190
H        1.6471486184   -0.7187990803    0.4108078165
H       -2.0070719354   -0.2295271458    0.9606417474
H       -0.4674757174   -1.0148756294    1.3075709254
H       -0.5529753723    0.7648095657    1.2781469789
H       -1.3741274877    0.3599699261   -1.1281818761
10   
torsion grid (60,)
C        1.6410385347   -0.1441662339   -0.5191445227
C       -0.9484833184   -0.1197350423    0.8227170437
N        0.5758470633    0.3561681003   -1.0216374701
N       -0.6503488471   -0.1931596502   -0.6177347898
H        2.5898385052    0.2582450178   -0.8679459150
H        1.6594636437   -0.9401007553    0.2323876532
H       -2.0109140371   -0.3406088653    0.9576000454
H       -0.3843217003   -0.8721551157    1.3793235983
H       -0.7271252012    0.8715772562    1.2453471908
H       -1.3521007307    0.3493298676   -1.1134493190
10   
torsion grid (75,)
C        1.6548603220   -0.1801655821   -0.5479245723
C       -0.9683269237   -0.0817848878    0.8387549157
N        0.6006400872    0.4340512108   -0.9249316101
N       -0.6256929594   -0.2110116429   -0.5901328902
H        2.6142695432    0.2731757886   -0.7915882126
H        1.6450948663   -1.1277500892    0.0020669413
H       -1.9955131258   -0.4336714178    0.9717925799
H       -0.3172539089   -0.7165447239    1.4446535972
H       -0.8902544365    0.9532794563    1.2040308801
H       -1.3249295522    0.3158164673   -1.1092581143
10   
torsion grid (90,)
C        1.6783709902   -0.1947309257   -0.5823943441
C       -0.9997582300   -0.0534591282    0.8596308116
N        0.6266187495    0.4906972482   -0.8057976306
N       -0.5896826342   -0.2447974701   -0.5450856482
H        2.6419277053    0.2890016378   -0.7399430600
H        1.6532473423   -1.2361227710   -0.2422874528
H       -2.0081750415   -0.4618877881    0.9755523826
H       -0.3296221052   -0.6114552822    1.5191974187
H       -0.9985779494    1.0023572328    1.1697786112
H       -1.2814549148    0.2457918258   -1.1111875734
10   
torsion grid (105,)
C        1.7107641451   -0.2079332358   -0.6301648682
C       -1.0441541269   -0.0265936453    0.8882572036
N        0.6623983568    0.5147223258   -0.6708697118
N       -0.5466495100   -0.2756856436   -0.4781000305
H        2.6749600633    0.2883968570   -0.7437835852
H        1.6766416467   -1.2932732309   -0.4853409873
H       -2.0413208217   -0.4693968043    0.9720276947
H       -0.3875308138   -0.5225359917    1.6088705558
H       -1.0978260753    1.0426349662    1.1421116746
H       -1.2143889521    0.1750589818   -1.1055444308
10   
torsion grid (120,)
C        1.7440350203   -0.2159016111   -0.6817256598
C       -1.0943509007   -0.0033610873    0.9180259413
N        0.7093881335    0.5101236331   -0.5269100143
N       -0.4988331488   -0.3048800830   -0.3957485422
H        2.7062269889    0.2877696895   -0.7837887847
H        1.6987854839   -1.3096028765   -0.7150592898
H       -2.0851394943   -0.4664094770    0.9567109047
H       -0.4763012690   -0.4499456019    1.7022527731
H       -1.1856139146    1.0746900829    1.1162522922
H       -1.1253029871    0.1029119107   -1.0925461055
10   
torsion grid (135,)
C        1.7710727853   -0.2199005946   -0.7338083135
C       -1.1422620605    0.0194171484    0.9457733676
N        0.7646462513    0.4765399810   -0.3810439585
N       -0.4487307638   -0.3323800210   -0.3029966256
H        2.7308824088    0.2893277937   -0.8298578646
H        1.7043621159   -1.2927489329   -0.9428333878
H       -2.1270779720   -0.4579218305    0.9356600358
H       -0.5775509052   -0.3804743773    1.7927074361
H       -1.2613286844    1.1036399734    1.0865214010
H       -1.0211192633    0.0198954391   -1.0726585759
10   
torsion grid (150,)
C        1.7877104589   -0.2198740759   -0.7784691071
C       -1.1827527988    0.0438616918    0.9670415838
N        0.8241587352    0.4128570249   -0.2337056763
N       -0.4003259046   -0.3565889024   -0.2081412898
H        2.7482286331    0.2898541112   -0.8551730178
H        1.6845981163   -1.2361505809   -1.1739762438
H       -2.1601718128   -0.4452928606    0.9108869413
H       -0.6759297851   -0.3096703972    1.8689229725
H       -1.3215470584    1.1317750272    1.0488951039
H       -0.9110746717   -0.0853764589   -1.0488177520
10   
torsion grid (165,)
C        1.7946819952   -0.2201926350   -0.8172556253
C       -1.2136440068    0.0762364026    0.9830967996
N        0.8833530557    0.3048766557   -0.0915888161
N       -0.3618839331   -0.3676802002   -0.1192669891
H        2.7705805405    0.2622850740   -0.8276439761
H        1.6347745800   -1.1115821691   -1.4349964380
H       -2.1753030879   -0.4398652067    0.9035502745
H       -0.7473006842   -0.2139751200    1.9275553033
H       -1.3847055328    1.1629171043    0.9977424933
H       -0.8076590145   -0.2276253263   -1.0237295112
10   
torsion grid (180,)
C        1.7946490090   -0.2147153399   -0.8575184117
C       -1.2349746126    0.1211055721    0.9954616817
N        0.9430179956    0.1505544028    0.0299961939
N       -0.3290373674   -0.3379028851   -0.0440010209
H        2.8108287069    0.1584831662   -0.7630434684
H        1.5466423082   -0.8603474486   -1.7093872946
H       -2.1717864504   -0.4371926885    0.9094202478
H       -0.7933047306   -0.0960829677    1.9706787122
H       -1.4566882296    1.1979686599    0.9434330123
H       -0.7164527168   -0.4564758918   -0.9775761376
