22   
torsion grid (-165,)
C        0.8297670914   -1.8573078629    1.8862389071
C        0.7100818275   -0.6000238792    1.4253158407
C        1.6916845295    1.7248323805    2.0547973484
C        0.2261752031    1.9409425113    1.8093570732
C        0.7045198681    0.5915901598    2.3422933897
C        0.5868547064   -0.3532971637   -0.0630053892
C        0.3714296008    0.3608807071    3.8084293042
N        2.5340642158    0.2532258002    4.7264996941
O        1.2897997060   -0.4613490699    4.5358008964
H        0.8323418613   -2.6982956491    1.1965498442
H        0.9293029117   -2.0817496508    2.9422312194
H        2.3435893870    1.6167704252    1.1931593794
H        2.1523418537    2.1930741265    2.9175850395
H       -0.3216399361    2.5800699670    2.4965743811
H       -0.1215440201    1.9971810575    0.7843914156
H       -0.4075269903    0.0294609940   -0.3205103491
H        1.3161175885    0.3811507131   -0.4247622973
H        0.7440344723   -1.2794919055   -0.6211285354
H       -0.5794320117   -0.1762030517    3.8922469845
H        0.2809134949    1.3259798853    4.3216498272
H        3.1841012259   -0.1980621875    4.0763040049
H        2.8156965344   -0.0533197317    5.6596040456
22   
torsion grid (-150,)
C        0.6485381104   -1.8187010939    1.8584191880
C        0.7278722943   -0.5602736906    1.3916499411
C        1.6027863988    1.8318458188    1.9973224484
C        0.1189320860    1.9479634176    1.7853081174
C        0.7049292660    0.6340312304    2.3022875608
C        0.8166161593   -0.3219641260   -0.1011797781
C        0.4165720576    0.3933236358    3.7763435384
N        2.6137777616    0.2873507134    4.5978009230
O        1.3622086166   -0.4277501430    4.4658496647
H        0.6514650848   -2.6618817692    1.1716321170
H        0.6023570692   -2.0493353717    2.9164585747
H        2.2419666717    1.7850613621    1.1218391927
H        2.0478282327    2.3252676050    2.8543838865
H       -0.4585212104    2.5433798461    2.4873720635
H       -0.2544034470    1.9794642733    0.7681314033
H       -0.0832443008    0.1723124509   -0.4845363612
H        1.6696586235    0.3106393844   -0.3704288896
H        0.9260083973   -1.2694980816   -0.6340798407
H       -0.5299415703   -0.1463605421    3.8890260256
H        0.3364717309    1.3558488379    4.2962611906
H        3.2333140874   -0.1681657812    3.9214458928
H        2.9367897378   -0.0153865206    5.5186414762
22   
torsion grid (-135,)
C        0.4450096281   -1.7733482680    1.8388571946
C        0.7100933688   -0.5330620649    1.3942994361
C        1.4549115473    1.9190335535    1.9347896091
C       -0.0417542780    1.9295863948    1.7875997511
C        0.6593747971    0.6682035526    2.2934651554
C        1.0787658134   -0.3212316336   -0.0587899900
C        0.4399776715    0.4298235069    3.7797152703
N        2.6813224541    0.3043473192    4.4513519448
O        1.4143523419   -0.3958144041    4.4169020268
H        0.4685527699   -2.6210562449    1.1582737263
H        0.2278194360   -1.9924441701    2.8779950751
H        2.0517338409    1.9090448362    1.0292256611
H        1.9018861798    2.4589989943    2.7625126689
H       -0.6309860273    2.4885508480    2.5097713622
H       -0.4653339013    1.9137629326    0.7891993081
H        0.4624016404    0.4457826925   -0.5406302621
H        2.1228961212   -0.0033865013   -0.1608900867
H        0.9580609308   -1.2482347782   -0.6244576791
H       -0.5038754492   -0.1013177822    3.9436245670
H        0.3895854486    1.3947085589    4.2997065470
H        3.2448390537   -0.1674019509    3.7380608163
H        3.0657196429    0.0062098840    5.3498475140
22   
torsion grid (-120,)
C        0.2336854871   -1.7216258047    1.7928233652
C        0.7010932340   -0.5224155168    1.4101340323
C        1.3656937513    1.9667877485    1.9204522458
C       -0.1359999349    1.8971369995    1.8213723540
C        0.6510171098    0.6816811776    2.3086209441
C        1.2592926398   -0.3384978763    0.0162102220
C        0.4953480072    0.4350026913    3.8020582858
N        2.7621340161    0.3281347556    4.3755011757
O        1.5034292446   -0.3881666081    4.3850247885
H        0.2495032660   -2.5677230191    1.1102975466
H       -0.1445403894   -1.9150350270    2.7908111188
H        1.9316660083    1.9893861925    0.9956333754
H        1.8081492897    2.5366391921    2.7305704265
H       -0.7341912259    2.4295087898    2.5563608488
H       -0.5858425438    1.8420264633    0.8350182650
H        0.7646302875    0.4775639169   -0.5241321571
H        2.3282821159   -0.0971025630    0.0480142592
H        1.1375380654   -1.2501981315   -0.5738149226
H       -0.4364208915   -0.1016695475    4.0090268274
H        0.4607724414    1.3974738961    4.3282021894
H        3.3092322737   -0.1424923519    3.6490573741
H        3.1786130391    0.0420316410    5.2636304332
22   
torsion grid (-105,)
C       -0.0151724896   -1.6377452741    1.6640582670
C        0.6677581495   -0.5168201663    1.3864173998
C        1.3070295996    1.9840614527    1.8986315336
C       -0.1966405582    1.8798173628    1.8598501149
C        0.6379383680    0.6813189558    2.3016226284
C        1.4480447904   -0.3999921471    0.0976831921
C        0.5748846491    0.4042388154    3.7960169183
N        2.8639581733    0.4349705649    4.2925320153
O        1.6608304130   -0.3718027871    4.3003618006
H       -0.0035199968   -2.4848903652    0.9829148551
H       -0.5856796049   -1.7649609044    2.5791021707
H        1.8345833213    2.0319630130    0.9522263764
H        1.7662171658    2.5583206990    2.6962885857
H       -0.7790133294    2.3972419606    2.6181689693
H       -0.6809682119    1.8133294742    0.8901572498
H        1.0739348965    0.4175374885   -0.5315867452
H        2.5062275577   -0.1902718258    0.2932479066
H        1.3831625948   -1.3229445407   -0.4841478128
H       -0.3104256656   -0.1886046054    4.0459878923
H        0.5180621346    1.3535505842    4.3435449418
H        3.4305404924    0.0294189985    3.5425191263
H        3.3180005178    0.1534441876    5.1636502046
22   
torsion grid (-90,)
C       -0.2845540489   -1.5727631381    1.5273349891
C        0.5818270202   -0.5601402850    1.3818535956
C        1.1843817053    1.9406999047    1.9121367445
C       -0.3162380528    1.8126502541    1.9804378588
C        0.5629969317    0.6189073669    2.3285573516
C        1.6296064969   -0.5842391157    0.2959271519
C        0.6495469814    0.2758763628    3.8068284321
N        2.9531088539    0.5184482329    4.1845055942
O        1.8463011674   -0.4159611225    4.1708898328
H       -0.2613714091   -2.4391718355    0.8709320565
H       -1.0466697921   -1.5727041878    2.3030245141
H        1.6402011432    2.0153432237    0.9301809914
H        1.6896833612    2.5094617777    2.6855122517
H       -0.8466905385    2.3100655080    2.7889812187
H       -0.8691205877    1.7573180350    1.0475772305
H        1.4803212082    0.2242550571   -0.4303970398
H        2.6320414928   -0.4465102212    0.7186379668
H        1.6108267597   -1.5304699196   -0.2514209407
H       -0.1490954199   -0.4167700228    4.0893330199
H        0.5568252544    1.1870297557    4.4109951709
H        3.5254697563    0.2410652814    3.3826516958
H        3.4756876906    0.2229884873    5.0115660606
22   
torsion grid (-75,)
C       -0.4573205867   -1.4302729029    1.3597902556
C        0.5441457556   -0.5398517948    1.3686605198
C        1.0776582085    1.9662137236    1.8957397812
C       -0.4105653776    1.7909399494    2.0677297091
C        0.5229450803    0.6223243488    2.3352550311
C        1.7858402951   -0.7332647424    0.5348586903
C        0.7328539898    0.2399251056    3.7911043810
N        3.0331838806    0.6241019768    4.0643958719
O        1.9949928304   -0.3858881351    4.0443163697
H       -0.4349933989   -2.3119760652    0.7235195049
H       -1.3407957201   -1.2962015596    1.9809246066
H        1.4576898917    2.0607962176    0.8830072984
H        1.6158611506    2.5486170389    2.6362756725
H       -0.8913666473    2.2677603459    2.9187569818
H       -1.0273509397    1.7340391696    1.1763259718
H        1.9456099548    0.1018588289   -0.1569482139
H        2.6703084136   -0.7854193635    1.1812760542
H        1.7349977530   -1.6541743162   -0.0527817543
H       -0.0001318339   -0.5161276744    4.0900219240
H        0.6283998483    1.1206261968    4.4367309584
H        3.5712354674    0.4527534275    3.2106982599
H        3.6269890227    0.3087154865    4.8339677697
22   
torsion grid (-60,)
C       -0.5584235971   -1.3046297809    1.1849285888
C        0.5261169315   -0.5405373280    1.3742066674
C        0.9744148880    1.9724756839    1.8832563003
C       -0.4940481257    1.7360248489    2.1438464956
C        0.4985846349    0.6082528336    2.3521036684
C        1.8582327588   -0.8687849729    0.7462226042
C        0.7961232744    0.2278443338    3.7940333875
N        3.0890992689    0.7037785067    3.9531218163
O        2.0923653002   -0.3466170423    3.9909770425
H       -0.5396778807   -2.1742646548    0.5316963220
H       -1.5046844582   -1.0718570769    1.6690106248
H        1.2851819046    2.0729420729    0.8470585600
H        1.5336056015    2.5801392098    2.5873010413
H       -0.9403579793    2.1947927988    3.0228797949
H       -1.1581628266    1.6601850655    1.2888586490
H        2.2639259437   -0.0106047325    0.1979548704
H        2.5828939265   -1.1277348301    1.5271595351
H        1.7823229494   -1.7128369015    0.0546873161
H        0.1073793379   -0.5589789686    4.1189894179
H        0.6851579936    1.1013383754    4.4482662860
H        3.5749747077    0.5633639320    3.0628981653
H        3.7446364887    0.4051326698    4.6778536132
22   
torsion grid (-45,)
C       -0.6061036915   -1.1659598930    0.9518657950
C        0.5195927850   -0.5475048879    1.3348508110
C        0.8972858701    1.9613040491    1.8856481231
C       -0.5455401640    1.6602648707    2.2247136636
C        0.4993523388    0.5697540802    2.3454565253
C        1.8782244018   -0.9699047053    0.8291065407
C        0.8707097651    0.1741865320    3.7680461614
N        3.1512916355    0.7255277112    3.8349254506
O        2.1915181920   -0.3555999207    3.9193844089
H       -0.5881197098   -1.9904964328    0.2424508949
H       -1.5786854355   -0.8644229122    1.3336877218
H        1.1412409142    2.0915553151    0.8346831001
H        1.4764420588    2.5726931626    2.5701886674
H       -0.9559570069    2.0803226133    3.1394582541
H       -1.2524918448    1.5903671071    1.4047202054
H        2.4107506112   -0.1181159783    0.3879845605
H        2.4903906014   -1.3424891030    1.6574708574
H        1.8012515230   -1.7555032747    0.0719516909
H        0.2212967925   -0.6412253840    4.1042522929
H        0.7497858454    1.0328882607    4.4397352085
H        3.6061444943    0.5920439769    2.9272977221
H        3.8437524281    0.4547128914    4.5358481784
22   
torsion grid (-30,)
C       -0.5740054688   -0.2100837179    0.3441231571
C        0.2677920114   -0.4978575719    1.3471233248
C        1.8747176820    1.2742974702    2.3520075434
C        0.5434154117    1.9689092570    2.1719237494
C        0.5786676576    0.4828314739    2.4424251217
C        0.9339164374   -1.8481931347    1.4639252133
C        0.2146923910    0.0141776841    3.8448828935
N       -2.0425197068    0.6222752253    3.7531495372
O       -1.1188948507   -0.4766356237    3.9565597324
H       -0.7852059463   -0.9297852462   -0.4436386517
H       -1.0714070751    0.7536733506    0.2726218754
H        2.4885189598    1.1264183271    1.4681235783
H        2.4336076006    1.4480753874    3.2689229458
H        0.1797038976    2.6070809869    2.9708814663
H        0.2915311075    2.3077527548    1.1726054486
H        2.0153858172   -1.7385558929    1.6083579787
H        0.5464971493   -2.3990443964    2.3286976894
H        0.7620735625   -2.4583769095    0.5731451536
H        0.3787951443    0.8275273965    4.5638860455
H        0.8311111962   -0.8421378100    4.1391230391
H       -2.8112106568    0.3713105570    4.3775730315
H       -2.3941401566    0.4739285330    2.8026068228
22   
torsion grid (-15,)
C       -0.3960329649   -0.1614225871    0.2090320311
C        0.2663376737   -0.4908151334    1.3278538288
C        1.8255718885    1.3539768682    2.2942500257
C        0.4545288753    1.9822282823    2.1824788821
C        0.5749761068    0.4942737298    2.4204568961
C        0.7871762901   -1.8933190653    1.5438235848
C        0.2777785909    0.0040732728    3.8306883869
N       -1.9943453715    0.5649186705    3.8401209654
O       -1.0411049381   -0.5184814811    3.9824053454
H       -0.5660835007   -0.8920751785   -0.5782974558
H       -0.7948893390    0.8347252596    0.0410950608
H        2.4062681363    1.2476201547    1.3828837449
H        2.4132341722    1.5366404698    3.1912833460
H        0.0895990471    2.5803307826    3.0109125740
H        0.1479629701    2.3358072805    1.2043319666
H        1.8538447844   -1.8787820435    1.7993064792
H        0.2607392540   -2.3811627735    2.3714048410
H        0.6550937164   -2.5081736492    0.6496348566
H        0.4457129099    0.8132907303    4.5528737407
H        0.9239849295   -0.8391457838    4.0959075811
H       -2.7400190073    0.2750000030    4.4753961909
H       -2.3684342306    0.4426413643    2.8943772956
22   
torsion grid (0,)
C       -0.1435446631   -0.1405972625    0.0889927582
C        0.2980873327   -0.4931819949    1.3063152262
C        1.7608703381    1.4382281404    2.2628102159
C        0.3528850246    1.9788590163    2.1941879122
C        0.5697576786    0.4954455346    2.4082264571
C        0.6474039937   -1.9340477768    1.6070188640
C        0.3251660767   -0.0087886227    3.8224402340
N       -1.9428179683    0.5605743638    3.9791780153
O       -0.9896248645   -0.5308320856    4.0222874262
H       -0.2647886662   -0.8816386345   -0.6972020193
H       -0.4069499807    0.8806437972   -0.1691337998
H        2.3220470855    1.3684912307    1.3362594013
H        2.3593082097    1.6483731528    3.1465814768
H       -0.0278880518    2.5369877082    3.0427895847
H       -0.0085983782    2.3260906979    1.2328477019
H        1.6851521173   -2.0213898936    1.9525140452
H        0.0060691916   -2.3375432569    2.3973568767
H        0.5306736817   -2.5598260758    0.7184586868
H        0.5183104510    0.7931018736    4.5457427815
H        0.9800838999   -0.8532976652    4.0588762255
H       -2.6460393148    0.2547962023    4.6542297825
H       -2.3820289942    0.4728086458    3.0581611455
22   
torsion grid (15,)
C        0.1547530281   -0.1292989533    0.0044005901
C        0.3523233824   -0.4994283763    1.2802258319
C        1.6686607858    1.5299854579    2.2457193901
C        0.2247541136    1.9545801383    2.1978981377
C        0.5620694852    0.4872452193    2.4009521014
C        0.4811866377   -1.9659630894    1.6305829770
C        0.3679321627   -0.0319152491    3.8160720202
N       -1.8871949927    0.5392094795    4.1346189949
O       -0.9398853976   -0.5552714101    4.0680503698
H        0.0666111498   -0.8724080482   -0.7837100047
H        0.0737020080    0.9086844160   -0.3059036981
H        2.2246672072    1.4993052449    1.3142063909
H        2.2576154737    1.7876514782    3.1230772719
H       -0.1873201759    2.4764524335    3.0547730302
H       -0.1906569028    2.2596614951    1.2435476334
H        1.4697592227   -2.1821257992    2.0551174159
H       -0.2626990142   -2.2644387799    2.3755047314
H        0.3541228495   -2.5895385507    0.7420051783
H        0.5857773492    0.7634834917    4.5387525199
H        1.0319444361   -0.8768344303    4.0228820150
H       -2.5338078188    0.2180085011    4.8575415879
H       -2.4027981202    0.4800319518    3.2520062616
22   
torsion grid (30,)
C        0.4629322517   -0.1411762300   -0.0385960267
C        0.4105825018   -0.5066664198    1.2533963780
C        1.5509775580    1.6248857758    2.2240855462
C        0.0776546760    1.9170079266    2.1689130909
C        0.5499903380    0.4826366891    2.3854081241
C        0.2779880551   -1.9699346120    1.6161635118
C        0.4041743563   -0.0412739915    3.8041068578
N       -1.8318313140    0.5143475487    4.2772056727
O       -0.8903931623   -0.5738122080    4.1116034428
H        0.3851397091   -0.8793923460   -0.8320532746
H        0.5798135062    0.8917208944   -0.3570319959
H        2.1199167159    1.6376716973    1.3002688739
H        2.1057365764    1.9422707091    3.1037050679
H       -0.3799227997    2.4138977498    3.0176100207
H       -0.3675664166    2.1484121202    1.2065046201
H        1.1727783625   -2.3278917631    2.1405559024
H       -0.5712147152   -2.1433164453    2.2831480307
H        0.1533175290   -2.5794979159    0.7175772152
H        0.6403371442    0.7543788179    4.5199407092
H        1.0821840601   -0.8808367987    3.9865209735
H       -2.4152344356    0.1782318695    5.0458280889
H       -2.4196812810    0.4694093649    3.4402922071
22   
torsion grid (45,)
C        0.7819122680   -0.2154355516   -0.0314264005
C        0.4924014215   -0.5282778954    1.2430298282
C        1.4638017880    1.6994091197    2.1965098307
C       -0.0280187691    1.8634046882    2.1300630168
C        0.5718672436    0.4755919275    2.3683560447
C        0.0581983964   -1.9370252929    1.5863539065
C        0.4930777576   -0.0416260213    3.7961115722
N       -1.7325918594    0.4257396823    4.3965316941
O       -0.7630099839   -0.6247930928    4.1664305782
H        0.6935899721   -0.9565029538   -0.8211653317
H        1.1006844446    0.7761464325   -0.3417997410
H        2.0433403389    1.7688390061    1.2826087910
H        1.9788946193    2.0686171340    3.0794315346
H       -0.5328591466    2.3382295627    2.9648316161
H       -0.4799380387    2.0254362524    1.1562841258
H        0.7559012554   -2.4124918159    2.2855254757
H       -0.9196642081   -1.9474275780    2.0756357595
H        0.0136651654   -2.5545546982    0.6856171342
H        0.7215479917    0.7699453911    4.4957963216
H        1.2158788621   -0.8483638656    3.9568820437
H       -2.2382713955    0.0785791857    5.2139143877
H       -2.3840873877    0.3454937684    3.6110963812
22   
torsion grid (60,)
C        1.0574568473   -0.3166555154    0.0206615496
C        0.5501403650   -0.5350255981    1.2450081678
C        1.3659539530    1.7775902001    2.1534238253
C       -0.1353140525    1.8231154796    2.0969451966
C        0.5778306580    0.4914723345    2.3498975921
C       -0.1716559325   -1.8344420945    1.5325585820
C        0.5767161790   -0.0167727744    3.7848693029
N       -1.6486182412    0.3176907183    4.4660309767
O       -0.6236028727   -0.6720015369    4.2119510422
H        0.9619588502   -1.0656281584   -0.7612257042
H        1.5799679864    0.5945150651   -0.2541593799
H        1.9290797553    1.9068197042    1.2367743132
H        1.8533846277    2.1958689653    3.0297549816
H       -0.6727117297    2.2700374378    2.9270324297
H       -0.5995882870    1.9350687501    1.1218189569
H        0.2776675271   -2.3739761606    2.3722994838
H       -1.2147371146   -1.6538029925    1.8130307749
H       -0.1522019282   -2.4869176802    0.6555235036
H        0.7849657422    0.8116544826    4.4709417465
H        1.3535001960   -0.7783888633    3.9157940897
H       -2.0854008359   -0.0354081150    5.3198676459
H       -2.3342277923    0.1681918802    3.7208120893
22   
torsion grid (75,)
C        1.2719611422   -0.4210418376    0.1198715819
C        0.5807454349   -0.5373417591    1.2644536469
C        1.2983964385    1.8290057723    2.1137143462
C       -0.2062806959    1.7847410458    2.1122133297
C        0.5936618462    0.5044172526    2.3526865465
C       -0.3563646982   -1.7085955250    1.4675951948
C        0.6805596183    0.0067585561    3.7901044054
N       -1.5393953611    0.1961602346    4.5405335769
O       -0.4546774894   -0.7224780365    4.2697256734
H        1.1806200914   -1.1692564712   -0.6637776044
H        1.9597288685    0.3957813306   -0.0748407021
H        1.8067364607    1.9921935411    1.1711161745
H        1.7930369358    2.2891849584    2.9645176923
H       -0.7420521322    2.2078596023    2.9557707264
H       -0.7064085809    1.8660968825    1.1515808411
H       -0.0792837534   -2.3026709497    2.3431317228
H       -1.3808711781   -1.3601110428    1.6464568434
H       -0.3610052489   -2.3605839449    0.5897132105
H        0.8648657224    0.8510638600    4.4639696092
H        1.5080652603   -0.7052076556    3.8863118546
H       -1.9244832479   -0.1724248428    5.4125190718
H       -2.2343603472   -0.0148237883    3.8190970247
22   
torsion grid (90,)
C        1.4255921770   -0.5559271560    0.2634408148
C        0.5648069136   -0.5384095964    1.2919114036
C        1.2306728894    1.8673224834    2.0537846990
C       -0.2736383719    1.7694220694    2.1169609436
C        0.5798006736    0.5296349174    2.3533492986
C       -0.5419047854   -1.5643223065    1.3951045369
C        0.7465014700    0.0671184985    3.7957035025
N       -1.4780236478    0.0266392412    4.5480628267
O       -0.2945900270   -0.7709242472    4.3069653078
H        1.3590636688   -1.3173267531   -0.5104169739
H        2.2318832211    0.1652394206    0.1671040400
H        1.6861310528    2.0185864556    1.0820800768
H        1.7440431802    2.3713899869    2.8680604450
H       -0.7914975512    2.1931005218    2.9715604165
H       -0.8136984508    1.8208513949    1.1756343954
H       -0.4503807133   -2.1553436273    2.3107400872
H       -1.5202479727   -1.0675399963    1.4359616003
H       -0.5383294472   -2.2401468365    0.5352988017
H        0.8535881570    0.9386082972    4.4525115679
H        1.6453512493   -0.5537536505    3.8809349431
H       -1.8317356388   -0.3687077778    5.4214826299
H       -2.1351809860   -0.2712515551    3.8216473942
22   
torsion grid (105,)
C        1.5473962665   -0.6851988143    0.4157195901
C        0.5517048775   -0.5325295697    1.3002758220
C        1.1610087152    1.9056124129    1.9956717859
C       -0.3375442143    1.7564125387    2.1340888701
C        0.5687558456    0.5546777633    2.3421716154
C       -0.6534707458   -1.4438334605    1.3062934188
C        0.8051157203    0.1016649860    3.7772671114
N       -1.3919742897   -0.0530607418    4.5906508128
O       -0.1795182093   -0.7916178014    4.3065888776
H        1.5241577933   -1.4722949922   -0.3348311492
H        2.4188268874   -0.0355539298    0.4180800698
H        1.5626544088    2.0447059019    0.9978849503
H        1.6960668259    2.4430203614    2.7741990819
H       -0.8259451461    2.1765241886    3.0074936500
H       -0.9238096607    1.7856210622    1.2195505158
H       -0.7103868611   -1.9994447348    2.2478267113
H       -1.5779287862   -0.8585091982    1.2198252329
H       -0.6221836247   -2.1576165651    0.4781844460
H        0.8849290742    0.9756299688    4.4351741773
H        1.7353488356   -0.4743319618    3.8317999607
H       -1.7103689037   -0.4861912729    5.4596552461
H       -2.0504165337   -0.3595903402    3.8688734705
22   
torsion grid (120,)
C        1.6283714184   -0.8163262760    0.5823862758
C        0.5362855373   -0.5246433687    1.3023352633
C        1.0800520421    1.9445503780    1.9556053609
C       -0.4066046079    1.7410478519    2.1671662770
C        0.5516708302    0.5769966535    2.3308794500
C       -0.7337550939   -1.3339758376    1.2008225480
C        0.8520061606    0.1235461091    3.7532793443
N       -1.3054450472   -0.1090325616    4.6480453519
O       -0.0894551585   -0.8102095907    4.2920175333
H        1.6396458829   -1.6367709266   -0.1319109720
H        2.5429214993   -0.2358326819    0.6811363791
H        1.4318220480    2.0836553767    0.9385820077
H        1.6324082997    2.5047849836    2.7058192578
H       -0.8634880678    2.1487264938    3.0630557596
H       -1.0378643733    1.7546749007    1.2827820912
H       -0.9313929183   -1.8412661891    2.1516930718
H       -1.5947478636   -0.6879256804    0.9904525135
H       -0.6703807941   -2.0889845087    0.4119323429
H        0.9174405367    0.9922274903    4.4199210939
H        1.8022650138   -0.4204980233    3.7731501762
H       -1.5817089689   -0.5804031260    5.5115108715
H       -1.9856274098   -0.4013234564    3.9406835694
22   
torsion grid (135,)
C        1.7050051952   -0.9514780933    0.7840610714
C        0.5542025516   -0.5155093996    1.3143870149
C        0.9930842970    2.0055556996    1.8802939398
C       -0.4705899222    1.7341903450    2.1676491829
C        0.5493014763    0.6224855786    2.3058959620
C       -0.7557064547   -1.2255156077    1.0800457926
C        0.9184523606    0.2110696332    3.7244208398
N       -1.1902923978   -0.0994383882    4.7079940443
O        0.0331315894   -0.7570566715    4.2966833099
H        1.7411217568   -1.8139865377    0.1223371350
H        2.6471235037   -0.4455329421    0.9856478279
H        1.2913913917    2.1334713150    0.8445678552
H        1.5555091141    2.6062711870    2.5909429182
H       -0.9024452156    2.1370390648    3.0778150306
H       -1.1443307005    1.7076544362    1.3158906508
H       -1.1293173451   -1.6377162805    2.0250057403
H       -1.5223209028   -0.5405701475    0.6999169577
H       -0.6472321592   -2.0479300940    0.3671691739
H        0.9622909459    1.0910737980    4.3779104031
H        1.8920938719   -0.2896334622    3.7236316831
H       -1.4072009512   -0.5762900220    5.5853610597
H       -1.8920036631   -0.4211629080    4.0355379600
22   
torsion grid (150,)
C        1.6963933600   -1.1168390025    0.9831509846
C        0.5394151759   -0.5355795037    1.3286191567
C        0.8798306264    2.0091798439    1.8524707122
C       -0.5492691965    1.6785876634    2.2244852126
C        0.5212744467    0.6095165246    2.3157622065
C       -0.7863510117   -1.0666354049    0.8439550574
C        0.9777499109    0.2363119365    3.7183960514
N       -1.0679727098   -0.1814386252    4.7929494766
O        0.1729381024   -0.7726009240    4.3355026336
H        1.7280135187   -1.9792244131    0.3215297773
H        2.6523566059   -0.7416022998    1.3427206128
H        1.1171854866    2.1340817050    0.8005194088
H        1.4580301209    2.6396617769    2.5238023954
H       -0.9422640492    2.0683012311    3.1575390223
H       -1.2738382026    1.6195045251    1.4181364988
H       -1.4303996197   -1.3201375149    1.6947525296
H       -1.3283979130   -0.3233083525    0.2474792002
H       -0.6579456535   -1.9622760366    0.2298884290
H        1.0014695968    1.1253435682    4.3607331150
H        1.9771924362   -0.2084761357    3.6842705931
H       -1.2071898622   -0.6405676009    5.6952890897
H       -1.7796433124   -0.5732104700    4.1704235801
22   
torsion grid (165,)
C        1.3081807135   -1.7405944952    1.7350814530
C        0.7603586897   -0.5741684659    1.3578236532
C        1.8587621107    1.6615238098    2.0936584135
C        0.4445770099    2.0042727360    1.7148007840
C        0.7533754344    0.6241065595    2.2780803810
C        0.1613067397   -0.4183689106   -0.0207920976
C        0.2629259042    0.3952863117    3.7016542338
N        2.2810558175    0.2568182414    4.8991869400
O        1.0833232622   -0.4569116809    4.5077397137
H        1.3052672013   -2.6001356630    1.0683246232
H        1.7354202640   -1.8800622396    2.7224285641
H        2.5677706133    1.4815225252    1.2903963269
H        2.2800490843    2.1047096974    2.9897612127
H       -0.1014319999    2.6938835812    2.3531269066
H        0.2010032380    2.0942542564    0.6622282106
H       -0.8773485948   -0.0718797228    0.0356122028
H        0.7096909243    0.3193642836   -0.6202693897
H        0.1811722056   -1.3662597645   -0.5651315691
H       -0.7035204481   -0.1192263932    3.6810534656
H        0.1461455268    1.3579362674    4.2138646898
H        3.0251640836   -0.1663944134    4.3367338808
H        2.4283160455   -0.0792580618    5.8528696227
22   
torsion grid (180,)
C        1.0289934476   -1.8233290079    1.8425712036
C        0.7000283601   -0.5992971178    1.3954316637
C        1.7488710279    1.6769039591    2.0412022037
C        0.3077315133    1.9685824742    1.7416863519
C        0.6895554139    0.6027499145    2.3042260163
C        0.3838604338   -0.3863524034   -0.0679701139
C        0.2924096369    0.3909140856    3.7574821862
N        2.4006876451    0.2934135073    4.7982950026
O        1.1739270581   -0.4282268205    4.5339401135
H        1.0430999626   -2.6734603465    1.1642029400
H        1.2645251229   -2.0122620154    2.8842302750
H        2.4196230768    1.5103952434    1.2029794955
H        2.2065609909    2.1366990208    2.9102411129
H       -0.2250773562    2.6458222940    2.4038376677
H       -0.0024036023    2.0353078311    0.7053254557
H       -0.6415092559   -0.0232343298   -0.2043345779
H        1.0491425473    0.3554234401   -0.5275008569
H        0.4921107286   -1.3191253629   -0.6271213932
H       -0.6628001612   -0.1426255194    3.8050332883
H        0.1848803250    1.3615000430    4.2566576739
H        3.0924897285   -0.1537864806    4.1895307086
H        2.6271433386   -0.0101692090    5.7472932233
