40
1 1 C18FH17N3O
C                     3.074697974339    -1.238640927099     1.530431749362
C                     3.808458518430    -0.586498485187     0.548025936694
C                     4.027397794565     0.800550783322     0.622903252562
C                     4.783479091612     1.514380852044    -0.434860792222
O                     5.289717766683     0.946186537780    -1.401616755104
C                     4.897943958814     2.966781235901    -0.237950824695
C                     4.365728556566     3.592623586317     0.846205065622
N                     3.711702741211     2.894284534842     1.839227448453
C                     3.500711415733     1.520425198812     1.712873350479
C                     2.759519032810     0.837838223577     2.686887624401
C                     2.536500266058    -0.520755619951     2.616558639576
F                     2.261278379143     1.581580023548     3.714338054304
C                     4.595421422719     5.050809586330     1.117901648043
N                     5.803171397307     5.212203915323     2.010976452516
C                     6.285971638944     6.616110600138     2.385799454885
C                     7.752776030680     6.157226967046     2.176013002415
C                     7.194107509471     4.912777891426     1.440210977313
C                     8.676218600739     7.077954455839     1.422979342760
C                     8.773677897893     8.435530718049     1.757804993671
C                     9.655837120619     9.243756682344     1.044302004092
C                    10.416810967902     8.663850633929     0.021089807387
N                    10.341870166644     7.367793005786    -0.304192153697
C                     9.491133259141     6.602420732781     0.387627715007
H                     2.905049010036    -2.308799868522     1.466877243563
H                     4.223910709848    -1.120994884635    -0.300132660685
H                     5.430877422787     3.529795011107    -0.997416612179
H                     3.115145846107     3.381965907071     2.498893387980
H                     1.955375167978    -1.009056441731     3.392736727099
H                     3.757407739854     5.530813777297     1.633559412876
H                     4.802596703160     5.598259831137     0.198536118512
H                     5.655040757512     4.649426999836     2.854272043624
H                     5.938153999581     7.316310651444     1.625112559237
H                     5.953207725947     6.923423126634     3.377249419385
H                     8.195254355309     5.863718059841     3.133710208174
H                     7.552999160946     3.919451676208     1.704824570396
H                     7.149473364415     5.024899614858     0.357356402551
H                     8.177007425484     8.858223530113     2.564350307019
H                     9.758928752457    10.300143421727     1.272312404221
H                    11.114926521382     9.265442718986    -0.557290559628
H                     9.469473834821     5.550594093342     0.099219229429
