
  -OEChem-12102412493D

 44 47  0     0  0  0  0  0  0999 V2000
   -2.6768    6.8711   -8.2661 C   0  0  0  0  0  0  0  0  0  0  0  0
   -2.6453    5.5147   -7.9760 C   0  0  0  0  0  0  0  0  0  0  0  0
   -2.9519    5.0705   -6.6767 C   0  0  0  0  0  0  0  0  0  0  0  0
   -3.2907    5.9951   -5.6670 C   0  0  0  0  0  0  0  0  0  0  0  0
   -3.3192    7.3674   -5.9696 C   0  0  0  0  0  0  0  0  0  0  0  0
   -3.0147    7.7782   -7.2519 C   0  0  0  0  0  0  0  0  0  0  0  0
   -3.0387    9.0954   -7.5561 F   0  0  0  0  0  0  0  0  0  0  0  0
   -3.6179    5.5312   -4.2953 C   0  0  0  0  0  0  0  0  0  0  0  0
   -3.8927    6.3140   -3.3788 O   0  0  0  0  0  0  0  0  0  0  0  0
   -3.5862    4.0845   -4.1152 C   0  0  0  0  0  0  0  0  0  0  0  0
   -3.2369    3.2371   -5.1242 C   0  0  0  0  0  0  0  0  0  0  0  0
   -2.9143    3.7106   -6.3690 N   0  0  0  0  0  0  0  0  0  0  0  0
   -3.1790    1.7329   -4.9633 C   0  0  0  0  0  0  0  0  0  0  0  0
   -3.0039    1.3557   -3.5729 N   0  0  0  0  0  0  0  0  0  0  0  0
   -1.7385    1.6702   -2.8831 C   0  0  0  0  0  0  0  0  0  0  0  0
   -1.9550    0.3711   -2.0777 C   0  0  0  0  0  0  0  0  0  0  0  0
   -2.8991   -0.0691   -3.2180 C   0  0  0  0  0  0  0  0  0  0  0  0
   -0.7488   -0.4777   -1.8108 N   0  3  0  0  0  0  0  0  0  0  0  0
    0.2343    0.2054   -0.8786 C   0  0  0  0  0  0  0  0  0  0  0  0
    1.4276   -0.7130   -0.6276 C   0  0  0  0  0  0  0  0  0  0  0  0
    1.0078   -1.9607   -0.1006 O   0  0  0  0  0  0  0  0  0  0  0  0
    0.1580   -2.6485   -1.0028 C   0  0  0  0  0  0  0  0  0  0  0  0
   -1.1136   -1.8486   -1.2757 C   0  0  0  0  0  0  0  0  0  0  0  0
   -2.4477    7.2414   -9.2604 H   0  0  0  0  0  0  0  0  0  0  0  0
   -2.3875    4.7999   -8.7542 H   0  0  0  0  0  0  0  0  0  0  0  0
   -3.5815    8.0761   -5.1905 H   0  0  0  0  0  0  0  0  0  0  0  0
   -3.8666    3.6857   -3.1480 H   0  0  0  0  0  0  0  0  0  0  0  0
   -2.6662    3.0622   -7.1053 H   0  0  0  0  0  0  0  0  0  0  0  0
   -2.3648    1.3287   -5.5968 H   0  0  0  0  0  0  0  0  0  0  0  0
   -4.1151    1.2834   -5.3167 H   0  0  0  0  0  0  0  0  0  0  0  0
   -0.8519    1.6013   -3.5421 H   0  0  0  0  0  0  0  0  0  0  0  0
   -1.7162    2.6202   -2.3463 H   0  0  0  0  0  0  0  0  0  0  0  0
   -2.4614    0.5264   -1.1253 H   0  0  0  0  0  0  0  0  0  0  0  0
   -3.8387   -0.5616   -2.9546 H   0  0  0  0  0  0  0  0  0  0  0  0
   -2.3643   -0.6759   -3.9739 H   0  0  0  0  0  0  0  0  0  0  0  0
   -0.2709   -0.6167   -2.7096 H   0  0  0  0  0  0  0  0  0  0  0  0
    0.5329    1.1482   -1.3412 H   0  0  0  0  0  0  0  0  0  0  0  0
   -0.3072    0.4087    0.0473 H   0  0  0  0  0  0  0  0  0  0  0  0
    2.0057   -0.8576   -1.5542 H   0  0  0  0  0  0  0  0  0  0  0  0
    2.0842   -0.2529    0.1129 H   0  0  0  0  0  0  0  0  0  0  0  0
    0.6862   -2.8667   -1.9447 H   0  0  0  0  0  0  0  0  0  0  0  0
   -0.1090   -3.5985   -0.5364 H   0  0  0  0  0  0  0  0  0  0  0  0
   -1.6784   -1.6823   -0.3564 H   0  0  0  0  0  0  0  0  0  0  0  0
   -1.7531   -2.3361   -2.0144 H   0  0  0  0  0  0  0  0  0  0  0  0
  1  2  1  0  0  0  0
  1  6  2  0  0  0  0
  1 24  1  0  0  0  0
  2  3  2  0  0  0  0
  2 25  1  0  0  0  0
  3  4  1  0  0  0  0
  3 12  1  0  0  0  0
  4  5  2  0  0  0  0
  4  8  1  0  0  0  0
  5  6  1  0  0  0  0
  5 26  1  0  0  0  0
  6  7  1  0  0  0  0
  8  9  2  0  0  0  0
  8 10  1  0  0  0  0
 10 11  2  0  0  0  0
 10 27  1  0  0  0  0
 11 12  1  0  0  0  0
 11 13  1  0  0  0  0
 12 28  1  0  0  0  0
 13 14  1  0  0  0  0
 13 29  1  0  0  0  0
 13 30  1  0  0  0  0
 14 15  1  0  0  0  0
 14 17  1  0  0  0  0
 15 16  1  0  0  0  0
 15 31  1  0  0  0  0
 15 32  1  0  0  0  0
 16 17  1  0  0  0  0
 16 18  1  0  0  0  0
 16 33  1  0  0  0  0
 17 34  1  0  0  0  0
 17 35  1  0  0  0  0
 18 19  1  0  0  0  0
 18 23  1  0  0  0  0
 18 36  1  0  0  0  0
 19 20  1  0  0  0  0
 19 37  1  0  0  0  0
 19 38  1  0  0  0  0
 20 21  1  0  0  0  0
 20 39  1  0  0  0  0
 20 40  1  0  0  0  0
 21 22  1  0  0  0  0
 22 23  1  0  0  0  0
 22 41  1  0  0  0  0
 22 42  1  0  0  0  0
 23 43  1  0  0  0  0
 23 44  1  0  0  0  0
M  CHG  1  18   1
M  END
$$$$
