44
1 1 C17FH21N3O2
C                    -8.083149872471    -0.393881203193     4.309963348804
C                    -7.787101512625     0.022250790437     3.020057485112
C                    -6.591611759075    -0.396045929575     2.407636936753
C                    -5.691051536579    -1.234962981440     3.098053263449
C                    -5.998635732071    -1.650586171181     4.405103304577
C                    -7.178725550356    -1.227632501211     4.983189285018
F                    -7.486698109004    -1.621222265347     6.238680198774
C                    -4.429836200720    -1.677965413762     2.455902131784
O                    -3.596511546536    -2.386942287157     3.034670126398
C                    -4.246687375429    -1.208677939745     1.090428667012
C                    -5.141888355725    -0.384915009747     0.473343347456
N                    -6.279845359668     0.022305517944     1.113084950069
C                    -4.947854201748     0.128255833867    -0.939006132209
N                    -3.540308301754     0.109805953998    -1.297490973411
C                    -3.092573538181     0.550363285975    -2.633926082169
C                    -1.769153918635     0.987137889914    -1.959166950239
C                    -2.608670872244     1.068337471130    -0.663806862328
N                    -0.788278756340    -0.163435704169    -1.886250082475
C                    -0.205308994131    -0.533886893137    -3.234776932831
C                     0.752848950350    -1.712743876691    -3.078435325431
O                     1.789079229235    -1.410004108058    -2.161266257041
C                     1.269545087873    -1.130434384762    -0.871640127006
C                     0.340871934468     0.080914915627    -0.903126409170
H                    -8.999369125978    -0.088196568675     4.805174066057
H                    -8.481050097202     0.667460820384     2.486277877363
H                    -5.304382113875    -2.296074331379     4.933495819529
H                    -3.367528608654    -1.543437205375     0.554717969910
H                    -6.927638457043     0.642321426183     0.643137168729
H                    -5.374408261165     1.144035101635    -1.028836376768
H                    -5.486656902459    -0.513167033538    -1.646944897503
H                    -3.083657690655    -0.224084630199    -3.406731887374
H                    -3.620132974741     1.436326620791    -3.018447172401
H                    -1.237680623923     1.865865996400    -2.322354896235
H                    -3.025113413519     2.080362173671    -0.547881058558
H                    -2.182493994467     0.747897910158     0.289465252467
H                    -1.340279538860    -0.963432740582    -1.543550576300
H                    -1.026975286977    -0.775595241160    -3.909102377579
H                     0.319393208290     0.351069602660    -3.600819774004
H                     0.203640535428    -2.613753825731    -2.762585958711
H                     1.222234586740    -1.921103249351    -4.041623056965
H                     0.742799065478    -2.007576891112    -0.464636101587
H                     2.117751866838    -0.912165978328    -0.220472646479
H                     0.868383639244     0.971560283401    -1.250821358797
H                    -0.093576665749     0.271483350465     0.077936452281
