40
1 1 C18FH17N3O
C                     2.816352400648    -1.181107717109     1.670519403564
C                     3.738261240522    -0.623367944238     0.794210113191
C                     4.003097342038     0.757340400135     0.819660965223
C                     4.971447662938     1.369063021962    -0.123788308183
O                     5.612448998360     0.716930084073    -0.947207331203
C                     5.112286018515     2.825733310273     0.001479351935
C                     4.422183345735     3.542769023410     0.932562923409
N                     3.564445503111     2.938256377577     1.817800131841
C                     3.323105070836     1.568457053152     1.749397166851
C                     2.397942516089     0.979061116357     2.622347362002
C                     2.131908309742    -0.373042114676     2.600106615349
F                     1.768210824302     1.808095439847     3.502120572311
C                     4.668585696704     5.013910636233     1.123053489820
N                     5.924012966317     5.209426724529     1.935686156169
C                     5.931115535213     4.831602451275     3.419013180248
C                     6.755645629288     6.109592577709     3.728515981803
C                     6.372698978844     6.622570700274     2.317088006041
C                     6.351304651139     6.931758202171     4.923474139802
C                     6.145184576515     6.334613624024     6.174870243260
C                     5.787483018128     7.139364275197     7.254237767750
C                     5.652324845439     8.518139350008     7.046241918666
N                     5.854873275523     9.104210529889     5.860110838716
C                     6.198475547435     8.321032089341     4.832166691767
H                     2.612610035649    -2.246898930379     1.644749515884
H                     4.271783758106    -1.229051378774     0.068819157574
H                     5.781009609185     3.321854339331    -0.696639974579
H                     2.948007086821     3.487267203020     2.405160731373
H                     1.405801562571    -0.787889763465     3.292378232053
H                     3.862278237928     5.525104775418     1.654544316173
H                     4.831592672080     5.513824389487     0.166197744620
H                     6.679362601785     4.709178589487     1.455710699525
H                     4.909468194896     4.879408569200     3.796811470901
H                     6.362414731969     3.847591575334     3.598728465667
H                     7.823206098936     5.869170162059     3.766069328314
H                     7.147732297307     7.010269314444     1.656296305499
H                     5.497568991635     7.273119577934     2.309485909733
H                     6.266381927239     5.261271380048     6.310525075220
H                     5.618389547018     6.714877848728     8.239023136873
H                     5.372771468427     9.175990127034     7.866511188968
H                     6.367508401295     8.839298602570     3.887232764071
