45
-1 1 C17ClH16N4O6S
C                     3.160538079852    -6.367431929897     0.630042937948
S                     4.361619765405    -5.037259924474     0.391329611227
O                     5.082766841504    -5.299482869547    -0.867730777444
O                     5.125278906568    -4.936887956576     1.648823037383
C                     3.375347487697    -3.546529436045     0.247869171987
C                     3.488036309178    -2.600422692897     1.271337289375
C                     2.796727742079    -1.399133358205     1.175331758438
C                     2.038589400920    -1.089130891653     0.039485224337
C                     1.955718805075    -2.037968146875    -0.986627064569
C                     2.583505426649    -3.284088247707    -0.886285688406
O                     2.500746085021    -4.241642284571    -1.880058349270
C                     1.200619062961    -4.797191644797    -2.122675379232
C                     1.331424943596    -5.707091040712    -3.331516543687
N                     2.085403560289    -6.926210318878    -3.052023577545
C                     3.381002222453    -7.117876441879    -2.722727955488
N                     3.575721623874    -8.412161940212    -2.520569957642
N                     2.369509586430    -9.010975537989    -2.734486278401
N                     1.465407697282    -8.135518286426    -3.050402771250
Cl                    1.141892119144    -1.588846663837    -2.477315303489
C                     1.140905156020     0.150179587495     0.074887730076
C                     1.729379932877     1.441104720580    -0.195978673846
C                     3.047283742561     1.476806491906    -0.794004056877
O                     3.670835538837     0.462843915961    -1.173425360494
C                     3.728930713858     2.829671436492    -1.011628602815
C                     3.206287471171     3.932626707058    -0.095507035421
C                     1.685122207446     4.001278872179    -0.209283660035
C                     0.988728797697     2.665366558754     0.098070306328
O                    -0.155118493654     2.714055254307     0.569137159883
O                    -0.019653387599    -0.109030566506     0.419649572135
H                     2.616746174688    -6.171814170783     1.555131201506
H                     2.488260021732    -6.413428452265    -0.223573365637
H                     3.737099119741    -7.292067196595     0.700020316266
H                     4.118958369226    -2.825047110309     2.124862595646
H                     2.866135625176    -0.662737389894     1.970627134711
H                     0.472539543149    -4.014544101285    -2.346117127912
H                     0.854831749552    -5.355487265409    -1.243282319247
H                     1.819249336550    -5.160216419000    -4.142246775629
H                     0.344634215099    -6.032116700106    -3.664529021803
H                     4.105775114963    -6.325792012376    -2.582789015957
H                     4.805198037784     2.664915292305    -0.901082605072
H                     3.560506307955     3.109451968113    -2.061610461704
H                     3.485420930191     3.711366311508     0.943188108577
H                     3.662407174650     4.898448629828    -0.350435002765
H                     1.249500982280     4.747237189107     0.461964746235
H                     1.407191483557     4.289945707363    -1.233736004700
