
  -OEChem-12102412493D

 40 43  0     0  0  0  0  0  0999 V2000
    3.2753   -1.5177    1.7199 C   0  0  0  0  0  0  0  0  0  0  0  0
    3.8002   -0.8197    0.6401 C   0  0  0  0  0  0  0  0  0  0  0  0
    4.1359    0.5403    0.7640 C   0  0  0  0  0  0  0  0  0  0  0  0
    4.6695    1.3053   -0.3894 C   0  0  0  0  0  0  0  0  0  0  0  0
    4.8852    0.8009   -1.4907 O   0  0  0  0  0  0  0  0  0  0  0  0
    4.9376    2.7249   -0.1173 C   0  0  0  0  0  0  0  0  0  0  0  0
    4.7273    3.2774    1.1076 C   0  0  0  0  0  0  0  0  0  0  0  0
    4.2789    2.5281    2.1751 N   0  0  0  0  0  0  0  0  0  0  0  0
    3.9417    1.1849    2.0010 C   0  0  0  0  0  0  0  0  0  0  0  0
    3.4069    0.4574    3.0728 C   0  0  0  0  0  0  0  0  0  0  0  0
    3.0700   -0.8744    2.9563 C   0  0  0  0  0  0  0  0  0  0  0  0
    3.2291    1.1295    4.2449 F   0  0  0  0  0  0  0  0  0  0  0  0
    5.1201    4.6908    1.4245 C   0  0  0  0  0  0  0  0  0  0  0  0
    6.5033    4.7070    2.0305 N   0  3  0  0  0  0  0  0  0  0  0  0
    7.1569    6.0493    2.3775 C   0  0  0  0  0  0  0  0  0  0  0  0
    8.4998    5.5522    1.7758 C   0  0  0  0  0  0  0  0  0  0  0  0
    7.7074    4.3773    1.1380 C   0  0  0  0  0  0  0  0  0  0  0  0
    9.2625    6.4754    0.8663 C   0  0  0  0  0  0  0  0  0  0  0  0
   10.6187    6.7488    1.0823 C   0  0  0  0  0  0  0  0  0  0  0  0
   11.2822    7.6103    0.2094 C   0  0  0  0  0  0  0  0  0  0  0  0
   10.5645    8.1713   -0.8523 C   0  0  0  0  0  0  0  0  0  0  0  0
    9.2657    7.9215   -1.0749 N   0  0  0  0  0  0  0  0  0  0  0  0
    8.6452    7.0941   -0.2319 C   0  0  0  0  0  0  0  0  0  0  0  0
    3.0137   -2.5662    1.6187 H   0  0  0  0  0  0  0  0  0  0  0  0
    3.9585   -1.2960   -0.3221 H   0  0  0  0  0  0  0  0  0  0  0  0
    5.3155    3.3246   -0.9391 H   0  0  0  0  0  0  0  0  0  0  0  0
    3.8906    2.9860    2.9928 H   0  0  0  0  0  0  0  0  0  0  0  0
    2.6565   -1.3991    3.8120 H   0  0  0  0  0  0  0  0  0  0  0  0
    4.4540    5.1717    2.1482 H   0  0  0  0  0  0  0  0  0  0  0  0
    5.1580    5.3024    0.5231 H   0  0  0  0  0  0  0  0  0  0  0  0
    6.5028    4.0861    2.8453 H   0  0  0  0  0  0  0  0  0  0  0  0
    6.6731    6.8336    1.7954 H   0  0  0  0  0  0  0  0  0  0  0  0
    7.1091    6.2782    3.4423 H   0  0  0  0  0  0  0  0  0  0  0  0
    9.1542    5.1819    2.5681 H   0  0  0  0  0  0  0  0  0  0  0  0
    8.0666    3.3582    1.2752 H   0  0  0  0  0  0  0  0  0  0  0  0
    7.4278    4.5407    0.0983 H   0  0  0  0  0  0  0  0  0  0  0  0
   11.1485    6.2962    1.9177 H   0  0  0  0  0  0  0  0  0  0  0  0
   12.3334    7.8454    0.3443 H   0  0  0  0  0  0  0  0  0  0  0  0
   11.0497    8.8478   -1.5525 H   0  0  0  0  0  0  0  0  0  0  0  0
    7.5896    6.9179   -0.4521 H   0  0  0  0  0  0  0  0  0  0  0  0
  1  2  1  0  0  0  0
  1 11  2  0  0  0  0
  1 24  1  0  0  0  0
  2  3  2  0  0  0  0
  2 25  1  0  0  0  0
  3  4  1  0  0  0  0
  3  9  1  0  0  0  0
  4  5  2  0  0  0  0
  4  6  1  0  0  0  0
  6  7  2  0  0  0  0
  6 26  1  0  0  0  0
  7  8  1  0  0  0  0
  7 13  1  0  0  0  0
  8  9  1  0  0  0  0
  8 27  1  0  0  0  0
  9 10  2  0  0  0  0
 10 11  1  0  0  0  0
 10 12  1  0  0  0  0
 11 28  1  0  0  0  0
 13 14  1  0  0  0  0
 13 29  1  0  0  0  0
 13 30  1  0  0  0  0
 14 15  1  0  0  0  0
 14 17  1  0  0  0  0
 14 31  1  0  0  0  0
 15 16  1  0  0  0  0
 15 32  1  0  0  0  0
 15 33  1  0  0  0  0
 16 17  1  0  0  0  0
 16 18  1  0  0  0  0
 16 34  1  0  0  0  0
 17 35  1  0  0  0  0
 17 36  1  0  0  0  0
 18 19  1  0  0  0  0
 18 23  2  0  0  0  0
 19 20  2  0  0  0  0
 19 37  1  0  0  0  0
 20 21  1  0  0  0  0
 20 38  1  0  0  0  0
 21 22  2  0  0  0  0
 21 39  1  0  0  0  0
 22 23  1  0  0  0  0
 23 40  1  0  0  0  0
M  CHG  1  14   1
M  END
$$$$
