
  -OEChem-12122420533D

 45 47  0     0  0  0  0  0  0999 V2000
    3.1605   -6.3674    0.6300 C   0  0  0  0  0  0  0  0  0  0  0  0
    4.3616   -5.0373    0.3913 S   0  0  0  0  0  0  0  0  0  0  0  0
    5.0828   -5.2995   -0.8677 O   0  0  0  0  0  0  0  0  0  0  0  0
    5.1253   -4.9369    1.6488 O   0  0  0  0  0  0  0  0  0  0  0  0
    3.3753   -3.5465    0.2479 C   0  0  0  0  0  0  0  0  0  0  0  0
    3.4880   -2.6004    1.2713 C   0  0  0  0  0  0  0  0  0  0  0  0
    2.7967   -1.3991    1.1753 C   0  0  0  0  0  0  0  0  0  0  0  0
    2.0386   -1.0891    0.0395 C   0  0  0  0  0  0  0  0  0  0  0  0
    1.9557   -2.0380   -0.9866 C   0  0  0  0  0  0  0  0  0  0  0  0
    2.5835   -3.2841   -0.8863 C   0  0  0  0  0  0  0  0  0  0  0  0
    2.5007   -4.2416   -1.8801 O   0  0  0  0  0  0  0  0  0  0  0  0
    1.2006   -4.7972   -2.1227 C   0  0  0  0  0  0  0  0  0  0  0  0
    1.3314   -5.7071   -3.3315 C   0  0  0  0  0  0  0  0  0  0  0  0
    2.0854   -6.9262   -3.0520 N   0  0  0  0  0  0  0  0  0  0  0  0
    3.3810   -7.1179   -2.7227 C   0  0  0  0  0  0  0  0  0  0  0  0
    3.5757   -8.4122   -2.5206 N   0  0  0  0  0  0  0  0  0  0  0  0
    2.3695   -9.0110   -2.7345 N   0  0  0  0  0  0  0  0  0  0  0  0
    1.4654   -8.1355   -3.0504 N   0  0  0  0  0  0  0  0  0  0  0  0
    1.1419   -1.5888   -2.4773 Cl  0  0  0  0  0  0  0  0  0  0  0  0
    1.1409    0.1502    0.0749 C   0  0  0  0  0  0  0  0  0  0  0  0
    1.7294    1.4411   -0.1960 C   0  0  0  0  0  0  0  0  0  0  0  0
    3.0473    1.4768   -0.7940 C   0  0  0  0  0  0  0  0  0  0  0  0
    3.6708    0.4628   -1.1734 O   0  0  0  0  0  0  0  0  0  0  0  0
    3.7289    2.8297   -1.0116 C   0  0  0  0  0  0  0  0  0  0  0  0
    3.2063    3.9326   -0.0955 C   0  0  0  0  0  0  0  0  0  0  0  0
    1.6851    4.0013   -0.2093 C   0  0  0  0  0  0  0  0  0  0  0  0
    0.9887    2.6654    0.0981 C   0  0  0  0  0  0  0  0  0  0  0  0
   -0.1551    2.7141    0.5691 O   0  0  0  0  0  0  0  0  0  0  0  0
   -0.0197   -0.1090    0.4196 O   0  5  0  0  0  0  0  0  0  0  0  0
    2.6167   -6.1718    1.5551 H   0  0  0  0  0  0  0  0  0  0  0  0
    2.4883   -6.4134   -0.2236 H   0  0  0  0  0  0  0  0  0  0  0  0
    3.7371   -7.2921    0.7000 H   0  0  0  0  0  0  0  0  0  0  0  0
    4.1190   -2.8250    2.1249 H   0  0  0  0  0  0  0  0  0  0  0  0
    2.8661   -0.6627    1.9706 H   0  0  0  0  0  0  0  0  0  0  0  0
    0.4725   -4.0145   -2.3461 H   0  0  0  0  0  0  0  0  0  0  0  0
    0.8548   -5.3555   -1.2433 H   0  0  0  0  0  0  0  0  0  0  0  0
    1.8192   -5.1602   -4.1422 H   0  0  0  0  0  0  0  0  0  0  0  0
    0.3446   -6.0321   -3.6645 H   0  0  0  0  0  0  0  0  0  0  0  0
    4.1058   -6.3258   -2.5828 H   0  0  0  0  0  0  0  0  0  0  0  0
    4.8052    2.6649   -0.9011 H   0  0  0  0  0  0  0  0  0  0  0  0
    3.5605    3.1095   -2.0616 H   0  0  0  0  0  0  0  0  0  0  0  0
    3.4854    3.7114    0.9432 H   0  0  0  0  0  0  0  0  0  0  0  0
    3.6624    4.8984   -0.3504 H   0  0  0  0  0  0  0  0  0  0  0  0
    1.2495    4.7472    0.4620 H   0  0  0  0  0  0  0  0  0  0  0  0
    1.4072    4.2899   -1.2337 H   0  0  0  0  0  0  0  0  0  0  0  0
  1  2  1  0  0  0  0
  1 30  1  0  0  0  0
  1 31  1  0  0  0  0
  1 32  1  0  0  0  0
  2  3  2  0  0  0  0
  2  4  2  0  0  0  0
  2  5  1  0  0  0  0
  5  6  2  0  0  0  0
  5 10  1  0  0  0  0
  6  7  1  0  0  0  0
  6 33  1  0  0  0  0
  7  8  2  0  0  0  0
  7 34  1  0  0  0  0
  8  9  1  0  0  0  0
  8 20  1  0  0  0  0
  9 10  2  0  0  0  0
  9 19  1  0  0  0  0
 10 11  1  0  0  0  0
 11 12  1  0  0  0  0
 12 13  1  0  0  0  0
 12 35  1  0  0  0  0
 12 36  1  0  0  0  0
 13 14  1  0  0  0  0
 13 37  1  0  0  0  0
 13 38  1  0  0  0  0
 14 15  1  0  0  0  0
 14 18  1  0  0  0  0
 15 16  2  0  0  0  0
 15 39  1  0  0  0  0
 16 17  1  0  0  0  0
 17 18  2  0  0  0  0
 20 21  2  0  0  0  0
 20 29  1  0  0  0  0
 21 22  1  0  0  0  0
 21 27  1  0  0  0  0
 22 23  2  0  0  0  0
 22 24  1  0  0  0  0
 24 25  1  0  0  0  0
 24 40  1  0  0  0  0
 24 41  1  0  0  0  0
 25 26  1  0  0  0  0
 25 42  1  0  0  0  0
 25 43  1  0  0  0  0
 26 27  1  0  0  0  0
 26 44  1  0  0  0  0
 26 45  1  0  0  0  0
 27 28  2  0  0  0  0
M  CHG  1  29  -1
M  END
$$$$
