44
1 1 C17FH21N3O2
C                    -9.892706989734    -1.709824178473    -4.274652083800
C                    -9.060861253560    -0.793874228540    -3.647069819882
C                    -7.788362383165    -1.195802216817    -3.201520383560
C                    -7.352687557639    -2.524731253765    -3.389810493543
C                    -8.201892957502    -3.445666735661    -4.027392635087
C                    -9.445946875331    -3.026733214377    -4.454702200807
F                   -10.272201632021    -3.902614220467    -5.068718514795
C                    -6.011982496801    -2.953148244510    -2.921063150705
O                    -5.580483625607    -4.101005042793    -3.087883525231
C                    -5.242405127674    -1.914326965831    -2.252706851353
C                    -5.705501265369    -0.639402691068    -2.108497499358
N                    -6.939676682949    -0.281110904296    -2.576369318501
C                    -4.901635837709     0.450117627386    -1.429025748028
N                    -3.483564290781     0.151833647286    -1.504783815862
C                    -2.789681202467     0.248141513039    -2.805305408325
C                    -1.535040840533     0.721598496009    -2.041316965476
C                    -2.493366719401     1.042407470301    -0.872681822928
N                    -0.525177535850    -0.371734830003    -1.742601197939
C                    -1.090748475259    -1.677232593285    -1.201322762816
C                     0.058538657274    -2.639046093937    -0.914185456150
O                     0.827561940819    -2.885045476460    -2.080149396806
C                     1.416106336230    -1.695486873382    -2.571739367165
C                     0.353106342242    -0.664000604689    -2.945460961255
H                   -10.879932294432    -1.427067628303    -4.626168195607
H                    -9.396111780853     0.230147810384    -3.499410221890
H                    -7.864087255713    -4.467132959785    -4.170131805788
H                    -4.274619878075    -2.180168615175    -1.847308598305
H                    -7.261744172942     0.672488940529    -2.468219292290
H                    -5.179982166796     0.512833027466    -0.370012051260
H                    -5.138137076688     1.429311852978    -1.886291501175
H                    -2.752227304229    -0.675747338621    -3.389427782001
H                    -3.163210049050     1.055829648075    -3.452746248306
H                    -0.965972579523     1.549634018681    -2.463531544219
H                    -2.759115466394     2.110150389668    -0.889985155702
H                    -2.196589211569     0.770967644662     0.147809810235
H                     0.089519294739     0.004252071182    -1.010269183603
H                    -1.673417373766    -1.454447680525    -0.308676919974
H                    -1.751562014944    -2.081049490199    -1.966437315936
H                     0.697527441804    -2.253232393116    -0.103183131869
H                    -0.355940853512    -3.596386115662    -0.593132023154
H                     2.115109928446    -1.272362956520    -1.832049879271
H                     1.986753937209    -1.959060543285    -3.464207274170
H                    -0.305508312672    -1.042428457469    -3.728655589335
H                     0.803564685667     0.277328504348    -3.268300584300
