40
1 1 C18FH17N3O
C                     3.275316690931    -1.517731766187     1.719917630505
C                     3.800244132340    -0.819689344997     0.640069189765
C                     4.135885091871     0.540258329631     0.763989511787
C                     4.669460326089     1.305274545751    -0.389420376893
O                     4.885233894813     0.800908999252    -1.490701859941
C                     4.937623549941     2.724898725074    -0.117300696124
C                     4.727341623557     3.277391806445     1.107635499029
N                     4.278866837405     2.528067832497     2.175121857409
C                     3.941679606189     1.184891069576     2.000999615266
C                     3.406885708605     0.457364243610     3.072754454613
C                     3.070047871934    -0.874363018927     2.956297282839
F                     3.229066867307     1.129500508696     4.244857337757
C                     5.120051948086     4.690817521429     1.424450047939
N                     6.503279392945     4.706953859700     2.030534794596
C                     7.156856820574     6.049348456370     2.377522874597
C                     8.499777853316     5.552239786841     1.775784773673
C                     7.707423744523     4.377276489203     1.138048853232
C                     9.262499520008     6.475421117986     0.866254854578
C                    10.618715468697     6.748830636455     1.082253746957
C                    11.282224854056     7.610322171164     0.209367180074
C                    10.564465120660     8.171332095152    -0.852255423843
N                     9.265722674897     7.921544052514    -1.074939417217
C                     8.645149834102     7.094147326112    -0.231888776948
H                     3.013672311177    -2.566241501702     1.618736709405
H                     3.958544838442    -1.295976452358    -0.322091530513
H                     5.315486400214     3.324563345642    -0.939106596502
H                     3.890640241966     2.985974361038     2.992790803815
H                     2.656497913836    -1.399065507103     3.812023172540
H                     4.453980757641     5.171653240298     2.148191245976
H                     5.158032441150     5.302379045838     0.523060229037
H                     6.502822226169     4.086136808914     2.845340664747
H                     6.673119215593     6.833580393493     1.795373564610
H                     7.109114854802     6.278217192518     3.442292199048
H                     9.154203520264     5.181937466006     2.568115577502
H                     8.066562865721     3.358245025301     1.275208178337
H                     7.427761452258     4.540708446797     0.098347028967
H                    11.148469307898     6.296181827468     1.917706243873
H                    12.333371431986     7.845390546425     0.344333949367
H                    11.049696963332     8.847845348992    -1.552511567934
H                     7.589646831244     6.917910211371    -0.452144751818
