40
1 1 C18FH17N3O
C                     4.794714105889    -1.068584856184    -1.167639945426
C                     4.283383883492    -0.604055881232     0.037206200969
C                     4.328963467136     0.765689366574     0.351654121223
C                     3.769813918551     1.277955348908     1.626999499335
O                     3.269826228657     0.549584003739     2.483649967459
C                     3.861653438395     2.734220467396     1.795160724244
C                     4.440251805254     3.536720067508     0.857693497574
N                     4.982607174211     3.024149279100    -0.294317003140
C                     4.904073450196     1.661610123128    -0.571028740865
C                     5.412135294220     1.165555913276    -1.779845647837
C                     5.367905255341    -0.175475025472    -2.094648656583
F                     5.957086060433     2.074238138106    -2.636571703634
C                     4.633043017214     5.007794681204     1.103506874307
N                     5.832082454451     5.210628925191     1.995824844241
C                     6.288800514477     6.626723021552     2.354852219086
C                     7.765383164423     6.183754493614     2.175161212318
C                     7.233135037856     4.921217230749     1.450831135298
C                     8.687595942519     7.103345838936     1.419343667776
C                     8.755202167717     8.470191121543     1.722251413131
C                     9.636492931264     9.276065755694     1.004862077323
C                    10.425585615073     8.685422929221     0.009478685699
N                    10.379272533605     7.380533529228    -0.285131571576
C                     9.529975236828     6.617689109299     0.411134915019
H                     4.754684389953    -2.126446042030    -1.407252217226
H                     3.834618256254    -1.276285810684     0.761350420369
H                     3.429249504835     3.158086116079     2.697444445165
H                     5.281415785889     3.632249270162    -1.047578928677
H                     5.771600245701    -0.516871496267    -3.042825667982
H                     3.775214939293     5.436968289524     1.625025874718
H                     4.814185710533     5.581341712913     0.191293158903
H                     5.678077741239     4.656208405791     2.844392114597
H                     5.944602516028     7.311424424877     1.578619065383
H                     5.935882871536     6.944106621175     3.336015724751
H                     8.197129039663     5.910758336631     3.143645716683
H                     7.599656445730     3.935856593081     1.735409002299
H                     7.207565163285     5.022288495747     0.365880743609
H                     8.136510917038     8.901893149159     2.507055205607
H                     9.717314801663    10.339277447025     1.208845995843
H                    11.123140574091     9.285355138829    -0.571241369560
H                     9.533006871901     5.558329240675     0.150282544213
