
  -OEChem-12122420533D

 40 43  0     0  0  0  0  0  0999 V2000
    4.9132   -1.4042   -0.2769 C   0  0  0  0  0  0  0  0  0  0  0  0
    4.0767   -0.6350    0.5214 C   0  0  0  0  0  0  0  0  0  0  0  0
    4.3173    0.7401    0.6908 C   0  0  0  0  0  0  0  0  0  0  0  0
    3.4156    1.5792    1.5168 C   0  0  0  0  0  0  0  0  0  0  0  0
    2.4470    1.1288    2.1280 O   0  0  0  0  0  0  0  0  0  0  0  0
    3.7726    3.0041    1.5661 C   0  0  0  0  0  0  0  0  0  0  0  0
    4.8640    3.4983    0.9214 C   0  0  0  0  0  0  0  0  0  0  0  0
    5.7135    2.6834    0.2041 N   0  0  0  0  0  0  0  0  0  0  0  0
    5.4243    1.3272    0.0474 C   0  0  0  0  0  0  0  0  0  0  0  0
    6.2491    0.5283   -0.7562 C   0  0  0  0  0  0  0  0  0  0  0  0
    6.0154   -0.8191   -0.9308 C   0  0  0  0  0  0  0  0  0  0  0  0
    7.2996    1.1462   -1.3653 F   0  0  0  0  0  0  0  0  0  0  0  0
    5.3069    4.9233    1.0827 C   0  0  0  0  0  0  0  0  0  0  0  0
    6.3125    5.0134    2.2067 N   0  3  0  0  0  0  0  0  0  0  0  0
    5.8366    4.7976    3.6475 C   0  0  0  0  0  0  0  0  0  0  0  0
    6.7282    5.9803    4.1088 C   0  0  0  0  0  0  0  0  0  0  0  0
    6.8642    6.3820    2.6185 C   0  0  0  0  0  0  0  0  0  0  0  0
    6.1279    6.9797    5.0621 C   0  0  0  0  0  0  0  0  0  0  0  0
    5.3852    6.5669    6.1764 C   0  0  0  0  0  0  0  0  0  0  0  0
    4.8696    7.5340    7.0370 C   0  0  0  0  0  0  0  0  0  0  0  0
    5.1182    8.8831    6.7551 C   0  0  0  0  0  0  0  0  0  0  0  0
    5.8318    9.2927    5.6988 N   0  0  0  0  0  0  0  0  0  0  0  0
    6.3218    8.3552    4.8814 C   0  0  0  0  0  0  0  0  0  0  0  0
    4.7215   -2.4645   -0.4081 H   0  0  0  0  0  0  0  0  0  0  0  0
    3.2185   -1.0663    1.0266 H   0  0  0  0  0  0  0  0  0  0  0  0
    3.1277    3.6574    2.1448 H   0  0  0  0  0  0  0  0  0  0  0  0
    6.3677    3.0839   -0.4596 H   0  0  0  0  0  0  0  0  0  0  0  0
    6.6791   -1.4002   -1.5635 H   0  0  0  0  0  0  0  0  0  0  0  0
    4.4718    5.5710    1.3491 H   0  0  0  0  0  0  0  0  0  0  0  0
    5.7962    5.3272    0.1906 H   0  0  0  0  0  0  0  0  0  0  0  0
    7.0798    4.3660    2.0025 H   0  0  0  0  0  0  0  0  0  0  0  0
    4.7692    5.0118    3.6961 H   0  0  0  0  0  0  0  0  0  0  0  0
    6.0399    3.7908    4.0093 H   0  0  0  0  0  0  0  0  0  0  0  0
    7.6851    5.6078    4.4891 H   0  0  0  0  0  0  0  0  0  0  0  0
    7.8523    6.5784    2.2026 H   0  0  0  0  0  0  0  0  0  0  0  0
    6.1532    7.1468    2.3038 H   0  0  0  0  0  0  0  0  0  0  0  0
    5.2125    5.5110    6.3767 H   0  0  0  0  0  0  0  0  0  0  0  0
    4.2876    7.2550    7.9100 H   0  0  0  0  0  0  0  0  0  0  0  0
    4.7293    9.6642    7.4049 H   0  0  0  0  0  0  0  0  0  0  0  0
    6.9066    8.7283    4.0390 H   0  0  0  0  0  0  0  0  0  0  0  0
  1  2  1  0  0  0  0
  1 11  2  0  0  0  0
  1 24  1  0  0  0  0
  2  3  2  0  0  0  0
  2 25  1  0  0  0  0
  3  4  1  0  0  0  0
  3  9  1  0  0  0  0
  4  5  2  0  0  0  0
  4  6  1  0  0  0  0
  6  7  2  0  0  0  0
  6 26  1  0  0  0  0
  7  8  1  0  0  0  0
  7 13  1  0  0  0  0
  8  9  1  0  0  0  0
  8 27  1  0  0  0  0
  9 10  2  0  0  0  0
 10 11  1  0  0  0  0
 10 12  1  0  0  0  0
 11 28  1  0  0  0  0
 13 14  1  0  0  0  0
 13 29  1  0  0  0  0
 13 30  1  0  0  0  0
 14 15  1  0  0  0  0
 14 17  1  0  0  0  0
 14 31  1  0  0  0  0
 15 16  1  0  0  0  0
 15 32  1  0  0  0  0
 15 33  1  0  0  0  0
 16 17  1  0  0  0  0
 16 18  1  0  0  0  0
 16 34  1  0  0  0  0
 17 35  1  0  0  0  0
 17 36  1  0  0  0  0
 18 19  1  0  0  0  0
 18 23  2  0  0  0  0
 19 20  2  0  0  0  0
 19 37  1  0  0  0  0
 20 21  1  0  0  0  0
 20 38  1  0  0  0  0
 21 22  2  0  0  0  0
 21 39  1  0  0  0  0
 22 23  1  0  0  0  0
 23 40  1  0  0  0  0
M  CHG  1  14   1
M  END
$$$$
