44
1 1 C17FH21N3O2
C                    -5.097289252783     7.606153143762    -3.905309558131
C                    -5.187662988797     6.257323191283    -3.593172083788
C                    -4.541268961882     5.306410667086    -4.404851310389
C                    -3.802684718802     5.717385707086    -5.535043077984
C                    -3.717261758393     7.086211477738    -5.843824288202
C                    -4.359203933853     7.998872231466    -5.031208650776
F                    -4.284043772766     9.318245381052    -5.316606901207
C                    -3.113243702748     4.721932088354    -6.394231501177
O                    -2.433129133401     5.046746531956    -7.373271281109
C                    -3.286839053725     3.333580657607    -5.977985517485
C                    -4.010622919321     2.995702686086    -4.872394251188
N                    -4.620497426782     3.948993004577    -4.102110404026
C                    -4.135109746714     1.574664577005    -4.388933379429
N                    -3.496468964993     1.448896886757    -3.075064852899
C                    -2.053261638143     1.766562585460    -2.991230069717
C                    -1.933632324163     0.621926222095    -1.963852216469
C                    -3.270822489424     0.094671279393    -2.527132363608
N                    -0.735456308338    -0.272243455318    -2.088943713494
C                     0.558469143112     0.459816408470    -1.784855262655
C                     1.735599103921    -0.504603872039    -1.907179088783
O                     1.567784146119    -1.622223717343    -1.050500547808
C                     0.409355101556    -2.366651352146    -1.386509216707
C                    -0.850018792861    -1.517273668059    -1.231190265434
H                    -5.588954281638     8.360099782275    -3.298634593671
H                    -5.762636343593     5.938155348983    -2.726958721996
H                    -3.149462395541     7.398125475253    -6.714639840694
H                    -2.819967585890     2.564270417136    -6.583662115052
H                    -5.098116399098     3.663793846488    -3.256279948243
H                    -3.671865090143     0.908925561678    -5.133456387840
H                    -5.186405896582     1.281474901244    -4.284073925283
H                    -1.504394754193     1.544926918599    -3.923368608879
H                    -1.813815766118     2.782171897383    -2.669303414947
H                    -1.987521556379     0.947307525616    -0.925046289222
H                    -4.024554620664    -0.261519509807    -1.820522468126
H                    -3.111275443988    -0.670302083956    -3.309026416981
H                    -0.687955536247    -0.578545189841    -3.068598730726
H                     0.640585841351     1.295936943988    -2.482146490335
H                     0.466745587161     0.840497264975    -0.765795540689
H                     1.861445795034    -0.830742491651    -2.951702865752
H                     2.650003110259     0.005554550926    -1.599320954124
H                     0.484701649440    -2.762023009411    -2.411943978864
H                     0.357519939476    -3.213504718060    -0.699905797026
H                    -0.967376200907    -1.174509438219    -0.201364295531
H                    -1.747633260455    -2.055679226565    -1.542189193841
