
  -OEChem-12102412493D

 45 47  0     0  0  0  0  0  0999 V2000
    5.8709   -4.4762    0.5335 C   0  0  0  0  0  0  0  0  0  0  0  0
    4.1952   -5.1548    0.6913 S   0  0  0  0  0  0  0  0  0  0  0  0
    4.1021   -5.7381    2.0415 O   0  0  0  0  0  0  0  0  0  0  0  0
    3.9704   -6.0066   -0.4900 O   0  0  0  0  0  0  0  0  0  0  0  0
    3.1970   -3.6631    0.6461 C   0  0  0  0  0  0  0  0  0  0  0  0
    3.2414   -2.8662    1.7993 C   0  0  0  0  0  0  0  0  0  0  0  0
    2.6526   -1.6104    1.7932 C   0  0  0  0  0  0  0  0  0  0  0  0
    2.0276   -1.1054    0.6447 C   0  0  0  0  0  0  0  0  0  0  0  0
    1.9006   -1.9526   -0.4597 C   0  0  0  0  0  0  0  0  0  0  0  0
    2.4942   -3.2202   -0.4889 C   0  0  0  0  0  0  0  0  0  0  0  0
    2.3381   -4.0259   -1.5924 O   0  0  0  0  0  0  0  0  0  0  0  0
    3.3347   -3.8762   -2.6120 C   0  0  0  0  0  0  0  0  0  0  0  0
    3.1820   -5.0488   -3.5608 C   0  0  0  0  0  0  0  0  0  0  0  0
    1.9679   -4.9674   -4.3734 N   0  0  0  0  0  0  0  0  0  0  0  0
    0.7013   -4.6312   -4.0519 C   0  0  0  0  0  0  0  0  0  0  0  0
   -0.0586   -4.7563   -5.1285 N   0  0  0  0  0  0  0  0  0  0  0  0
    0.7723   -5.1825   -6.1212 N   0  0  0  0  0  0  0  0  0  0  0  0
    1.9885   -5.3139   -5.6850 N   0  0  0  0  0  0  0  0  0  0  0  0
    1.0201   -1.4281   -1.8847 Cl  0  0  0  0  0  0  0  0  0  0  0  0
    1.3708    0.2724    0.7324 C   0  0  0  0  0  0  0  0  0  0  0  0
    1.9033    1.3432   -0.0872 C   0  0  0  0  0  0  0  0  0  0  0  0
    3.1923    1.1655   -0.7144 C   0  0  0  0  0  0  0  0  0  0  0  0
    3.9119    0.1471   -0.5842 O   0  0  0  0  0  0  0  0  0  0  0  0
    3.7361    2.2794   -1.6097 C   0  0  0  0  0  0  0  0  0  0  0  0
    3.2382    3.6668   -1.2132 C   0  0  0  0  0  0  0  0  0  0  0  0
    1.7133    3.6598   -1.1776 C   0  0  0  0  0  0  0  0  0  0  0  0
    1.1146    2.5576   -0.2876 C   0  0  0  0  0  0  0  0  0  0  0  0
   -0.0191    2.7551    0.1669 O   0  0  0  0  0  0  0  0  0  0  0  0
    0.4274    0.3282    1.5308 O   0  5  0  0  0  0  0  0  0  0  0  0
    5.9495   -3.9293   -0.4068 H   0  0  0  0  0  0  0  0  0  0  0  0
    6.0650   -3.8138    1.3774 H   0  0  0  0  0  0  0  0  0  0  0  0
    6.5484   -5.3330    0.5448 H   0  0  0  0  0  0  0  0  0  0  0  0
    3.7343   -3.2444    2.6900 H   0  0  0  0  0  0  0  0  0  0  0  0
    2.6849   -0.9844    2.6794 H   0  0  0  0  0  0  0  0  0  0  0  0
    4.3348   -3.9231   -2.1709 H   0  0  0  0  0  0  0  0  0  0  0  0
    3.2139   -2.9136   -3.1220 H   0  0  0  0  0  0  0  0  0  0  0  0
    3.1757   -5.9722   -2.9769 H   0  0  0  0  0  0  0  0  0  0  0  0
    4.0152   -5.0743   -4.2652 H   0  0  0  0  0  0  0  0  0  0  0  0
    0.3977   -4.2988   -3.0705 H   0  0  0  0  0  0  0  0  0  0  0  0
    4.8275    2.2041   -1.5902 H   0  0  0  0  0  0  0  0  0  0  0  0
    3.4177    2.0546   -2.6384 H   0  0  0  0  0  0  0  0  0  0  0  0
    3.6290    3.9251   -0.2201 H   0  0  0  0  0  0  0  0  0  0  0  0
    3.6101    4.4278   -1.9120 H   0  0  0  0  0  0  0  0  0  0  0  0
    1.2996    4.6093   -0.8254 H   0  0  0  0  0  0  0  0  0  0  0  0
    1.3229    3.5002   -2.1933 H   0  0  0  0  0  0  0  0  0  0  0  0
  1  2  1  0  0  0  0
  1 30  1  0  0  0  0
  1 31  1  0  0  0  0
  1 32  1  0  0  0  0
  2  3  2  0  0  0  0
  2  4  2  0  0  0  0
  2  5  1  0  0  0  0
  5  6  2  0  0  0  0
  5 10  1  0  0  0  0
  6  7  1  0  0  0  0
  6 33  1  0  0  0  0
  7  8  2  0  0  0  0
  7 34  1  0  0  0  0
  8  9  1  0  0  0  0
  8 20  1  0  0  0  0
  9 10  2  0  0  0  0
  9 19  1  0  0  0  0
 10 11  1  0  0  0  0
 11 12  1  0  0  0  0
 12 13  1  0  0  0  0
 12 35  1  0  0  0  0
 12 36  1  0  0  0  0
 13 14  1  0  0  0  0
 13 37  1  0  0  0  0
 13 38  1  0  0  0  0
 14 15  1  0  0  0  0
 14 18  1  0  0  0  0
 15 16  2  0  0  0  0
 15 39  1  0  0  0  0
 16 17  1  0  0  0  0
 17 18  2  0  0  0  0
 20 21  2  0  0  0  0
 20 29  1  0  0  0  0
 21 22  1  0  0  0  0
 21 27  1  0  0  0  0
 22 23  2  0  0  0  0
 22 24  1  0  0  0  0
 24 25  1  0  0  0  0
 24 40  1  0  0  0  0
 24 41  1  0  0  0  0
 25 26  1  0  0  0  0
 25 42  1  0  0  0  0
 25 43  1  0  0  0  0
 26 27  1  0  0  0  0
 26 44  1  0  0  0  0
 26 45  1  0  0  0  0
 27 28  2  0  0  0  0
M  CHG  1  29  -1
M  END
$$$$
