
  -OEChem-12122420533D

 38 39  0     1  0  0  0  0  0999 V2000
   -2.3316    4.8454   -1.8835 C   0  0  0  0  0  0  0  0  0  0  0  0
   -1.5341    3.6314   -1.4658 N   0  3  0  0  0  0  0  0  0  0  0  0
   -0.0702    3.9581   -1.2380 C   0  0  0  0  0  0  0  0  0  0  0  0
    0.6895    2.7139   -0.7956 C   0  0  0  0  0  0  0  0  0  0  0  0
    0.5227    1.6167   -1.7554 N   0  0  0  0  0  0  0  0  0  0  0  0
   -0.8711    1.2646   -2.0111 C   0  0  0  0  0  0  0  0  0  0  0  0
   -1.6714    2.4952   -2.4547 C   0  0  0  0  0  0  0  0  0  0  0  0
    1.6445    1.0660   -2.3214 C   0  0  0  0  0  0  0  0  0  0  0  0
    2.7574    1.5656   -2.1798 O   0  0  0  0  0  0  0  0  0  0  0  0
    1.5073   -0.2259   -3.1548 C   0  0  2  0  0  0  0  0  0  0  0  0
    0.8596   -0.0334   -4.0166 H   0  0  0  0  0  0  0  0  0  0  0  0
    1.0156   -1.4709   -2.3899 C   0  0  0  0  0  0  0  0  0  0  0  0
    2.0508   -2.0167   -1.3992 C   0  0  0  0  0  0  0  0  0  0  0  0
    3.3533   -2.3619   -2.1263 C   0  0  0  0  0  0  0  0  0  0  0  0
    3.9268   -1.1342   -2.8144 C   0  0  0  0  0  0  0  0  0  0  0  0
    2.8854   -0.4938   -3.7451 N   0  3  0  0  0  0  0  0  0  0  0  0
   -2.2265    5.6116   -1.1152 H   0  0  0  0  0  0  0  0  0  0  0  0
   -1.9393    5.2079   -2.8336 H   0  0  0  0  0  0  0  0  0  0  0  0
   -3.3783    4.5593   -1.9892 H   0  0  0  0  0  0  0  0  0  0  0  0
   -1.9208    3.3129   -0.5687 H   0  0  0  0  0  0  0  0  0  0  0  0
    0.3132    4.3516   -2.1819 H   0  0  0  0  0  0  0  0  0  0  0  0
   -0.0187    4.7393   -0.4770 H   0  0  0  0  0  0  0  0  0  0  0  0
    1.7491    2.9563   -0.7162 H   0  0  0  0  0  0  0  0  0  0  0  0
    0.3432    2.3803    0.1917 H   0  0  0  0  0  0  0  0  0  0  0  0
   -0.9587    0.5255   -2.8063 H   0  0  0  0  0  0  0  0  0  0  0  0
   -1.3189    0.8254   -1.1096 H   0  0  0  0  0  0  0  0  0  0  0  0
   -2.7329    2.2530   -2.5403 H   0  0  0  0  0  0  0  0  0  0  0  0
   -1.3140    2.8777   -3.4132 H   0  0  0  0  0  0  0  0  0  0  0  0
    0.0845   -1.2272   -1.8750 H   0  0  0  0  0  0  0  0  0  0  0  0
    0.7644   -2.2444   -3.1250 H   0  0  0  0  0  0  0  0  0  0  0  0
    2.2456   -1.2871   -0.6040 H   0  0  0  0  0  0  0  0  0  0  0  0
    1.6415   -2.9083   -0.9182 H   0  0  0  0  0  0  0  0  0  0  0  0
    4.1082   -2.7274   -1.4248 H   0  0  0  0  0  0  0  0  0  0  0  0
    3.1844   -3.1676   -2.8511 H   0  0  0  0  0  0  0  0  0  0  0  0
    4.2028   -0.3543   -2.1069 H   0  0  0  0  0  0  0  0  0  0  0  0
    4.7841   -1.3625   -3.4511 H   0  0  0  0  0  0  0  0  0  0  0  0
    2.7710   -1.0959   -4.5683 H   0  0  0  0  0  0  0  0  0  0  0  0
    3.2780    0.4020   -4.0632 H   0  0  0  0  0  0  0  0  0  0  0  0
  1  2  1  0  0  0  0
  1 17  1  0  0  0  0
  1 18  1  0  0  0  0
  1 19  1  0  0  0  0
  2  3  1  0  0  0  0
  2  7  1  0  0  0  0
  2 20  1  0  0  0  0
  3  4  1  0  0  0  0
  3 21  1  0  0  0  0
  3 22  1  0  0  0  0
  4  5  1  0  0  0  0
  4 23  1  0  0  0  0
  4 24  1  0  0  0  0
  5  6  1  0  0  0  0
  5  8  1  0  0  0  0
  6  7  1  0  0  0  0
  6 25  1  0  0  0  0
  6 26  1  0  0  0  0
  7 27  1  0  0  0  0
  7 28  1  0  0  0  0
  8  9  2  0  0  0  0
  8 10  1  0  0  0  0
 10 11  1  0  0  0  0
 10 12  1  0  0  0  0
 10 16  1  0  0  0  0
 12 13  1  0  0  0  0
 12 29  1  0  0  0  0
 12 30  1  0  0  0  0
 13 14  1  0  0  0  0
 13 31  1  0  0  0  0
 13 32  1  0  0  0  0
 14 15  1  0  0  0  0
 14 33  1  0  0  0  0
 14 34  1  0  0  0  0
 15 16  1  0  0  0  0
 15 35  1  0  0  0  0
 15 36  1  0  0  0  0
 16 37  1  0  0  0  0
 16 38  1  0  0  0  0
M  CHG  2   2   1  16   1
M  END
$$$$
