44
1 1 C17FH21N3O2
C                    -7.156936826877    -5.506762815950    -1.950140584053
C                    -6.413791457248    -4.559327859169    -1.260719168722
C                    -6.488902632401    -3.204182954571    -1.633239250080
C                    -7.318069678827    -2.803116673172    -2.702233535964
C                    -8.066916684187    -3.770047703751    -3.395378411486
C                    -7.973931262843    -5.093066640897    -3.012139739890
F                    -8.688522849321    -6.032895384371    -3.670209411070
C                    -7.408798815547    -1.374328927887    -3.097775953424
O                    -8.098739459556    -0.991847799927    -4.048119913750
C                    -6.606385635366    -0.464813037279    -2.284795289558
C                    -5.812815741931    -0.910385640979    -1.269001130743
N                    -5.743925891573    -2.242427472909    -0.954781619248
C                    -4.898601498541     0.003954001535    -0.495610113753
N                    -3.515718373418    -0.203516787337    -0.939946845244
C                    -3.201381860842     0.155256968747    -2.344485722198
C                    -1.848175983255     0.715502300458    -1.858992349565
C                    -2.470027215647     0.721914076131    -0.446599789584
N                    -0.664456564940    -0.218967708826    -2.032423920196
C                    -0.874135134053    -1.647829369584    -1.560170423789
C                     0.409909869777    -2.443543811874    -1.779128549215
O                     0.796572476678    -2.429419357732    -3.142876250685
C                     1.068462875545    -1.111953024140    -3.587305752233
C                    -0.167351694904    -0.223028524780    -3.466933690411
H                    -7.121629027984    -6.557715143509    -1.680882333799
H                    -5.782733859041    -4.865523361367    -0.429322312408
H                    -8.705045651001    -3.457257886201    -4.215801497728
H                    -6.657418025034     0.593962233405    -2.515429630761
H                    -5.146391002899    -2.539666375643    -0.194584598819
H                    -4.945204087569    -0.204874290927     0.579746871910
H                    -5.221816154767     1.044351540370    -0.648975575602
H                    -3.219217932189    -0.674101391116    -3.057297077163
H                    -3.823667336053     0.966413738688    -2.746218994428
H                    -1.529780469802     1.675440995045    -2.265416619016
H                    -2.839700678160     1.728975144061    -0.205021777908
H                    -1.874413319624     0.356896452303     0.398497014914
H                     0.091325270723     0.171183001411    -1.456173353868
H                    -1.163773612680    -1.620064441485    -0.510483189603
H                    -1.694812384109    -2.059473824048    -2.145022384669
H                     1.221569871370    -2.056693347063    -1.141888293192
H                     0.232627905217    -3.485060867434    -1.504616273065
H                     1.910119477829    -0.678225755962    -3.023834714999
H                     1.361099164238    -1.176289320476    -4.636908418609
H                    -0.986327084592    -0.602057242408    -4.079910372267
H                     0.050887220484     0.809778104554    -3.747662846268
