45
-1 1 C17ClH16N4O6S
C                     3.380063435622    -5.794020923189     1.073376995044
S                     4.393939999103    -4.738397431972     0.003494199456
O                     4.391463264546    -5.356165331920    -1.336499001615
O                     5.678244590814    -4.538683391448     0.697704144658
C                     3.486229851643    -3.194931767447     0.059146396133
C                     3.826264320841    -2.321247090203     1.100886822685
C                     3.018342289478    -1.225254717500     1.366698446514
C                     1.859077827560    -0.981355544074     0.619446259556
C                     1.605372418326    -1.789603993108    -0.493272801515
C                     2.376080406314    -2.927164632737    -0.764683051439
O                     2.095473770857    -3.753784606371    -1.823370637460
C                     0.891090781524    -4.534253569640    -1.761519494892
C                     1.230154274042    -5.949280791827    -2.218350814716
N                     1.716685040386    -5.978550631120    -3.591086104266
C                     2.908113681642    -5.603741900660    -4.101021076862
N                     2.877873130257    -5.777242089700    -5.412868559206
N                     1.634328630162    -6.262446923166    -5.696366126807
N                     0.925398620700    -6.386029571918    -4.615794655369
Cl                    0.263956873581    -1.415048140562    -1.560632421952
C                     1.026860836530     0.249483225981     0.978153894947
C                    -0.325703657111     0.045566671720     1.462007193942
C                    -0.751114878965    -1.288133553962     1.820241041101
O                    -0.001653620574    -2.293455269318     1.849256790665
C                    -2.210135550192    -1.520482424036     2.220876699254
C                    -3.171541028755    -0.471993183554     1.670816600070
C                    -2.665176552385     0.914912921353     2.055571570753
C                    -1.227908906344     1.190347018913     1.584068177750
O                    -0.927206676351     2.366098055038     1.343249408369
O                     1.619883277667     1.323285933508     0.818192514339
H                     3.360115878412    -5.353257100972     2.070561055006
H                     2.369857578656    -5.855585775594     0.667857221741
H                     3.857261907851    -6.776535984492     1.085481082346
H                     4.708533675928    -2.528474309388     1.697649107340
H                     3.258434101665    -0.548906185942     2.180920046814
H                     0.137839180234    -4.091641130339    -2.418519312629
H                     0.495869161873    -4.552855863130    -0.740131599578
H                     0.334614101738    -6.573955708524    -2.187473112803
H                     2.003040688810    -6.383257487684    -1.582628429437
H                     3.722262207861    -5.233484708057    -3.494098690306
H                    -2.466901016607    -2.535134888311     1.900441011858
H                    -2.249346083931    -1.518971612516     3.319970352042
H                    -3.217756683407    -0.554056064471     0.577071452476
H                    -4.188713916458    -0.638811626583     2.049502749538
H                    -3.288599525762     1.715714846888     1.647571496238
H                    -2.681223586710     1.021355806007     3.150366288426
