
  -OEChem-12102412493D

 40 43  0     0  0  0  0  0  0999 V2000
    2.9078   -1.2283    1.7028 C   0  0  0  0  0  0  0  0  0  0  0  0
    3.8030   -0.6516    0.8111 C   0  0  0  0  0  0  0  0  0  0  0  0
    4.0329    0.7355    0.8266 C   0  0  0  0  0  0  0  0  0  0  0  0
    4.9725    1.3671   -0.1325 C   0  0  0  0  0  0  0  0  0  0  0  0
    5.6179    0.7279   -0.9627 O   0  0  0  0  0  0  0  0  0  0  0  0
    5.0795    2.8272   -0.0140 C   0  0  0  0  0  0  0  0  0  0  0  0
    4.3847    3.5308    0.9240 C   0  0  0  0  0  0  0  0  0  0  0  0
    3.5530    2.9091    1.8216 N   0  0  0  0  0  0  0  0  0  0  0  0
    3.3451    1.5334    1.7620 C   0  0  0  0  0  0  0  0  0  0  0  0
    2.4469    0.9252    2.6501 C   0  0  0  0  0  0  0  0  0  0  0  0
    2.2155   -0.4334    2.6379 C   0  0  0  0  0  0  0  0  0  0  0  0
    1.8081    1.7422    3.5338 F   0  0  0  0  0  0  0  0  0  0  0  0
    4.6007    5.0077    1.1079 C   0  0  0  0  0  0  0  0  0  0  0  0
    5.8653    5.2313    1.8990 N   0  3  0  0  0  0  0  0  0  0  0  0
    5.9046    4.8456    3.3800 C   0  0  0  0  0  0  0  0  0  0  0  0
    6.7029    6.1384    3.6857 C   0  0  0  0  0  0  0  0  0  0  0  0
    6.2886    6.6518    2.2809 C   0  0  0  0  0  0  0  0  0  0  0  0
    6.2985    6.9598    4.8812 C   0  0  0  0  0  0  0  0  0  0  0  0
    6.5265    8.3422    4.9205 C   0  0  0  0  0  0  0  0  0  0  0  0
    6.1486    9.0549    6.0563 C   0  0  0  0  0  0  0  0  0  0  0  0
    5.5582    8.3586    7.1187 C   0  0  0  0  0  0  0  0  0  0  0  0
    5.3423    7.0377    7.1001 N   0  0  0  0  0  0  0  0  0  0  0  0
    5.7103    6.3649    6.0046 C   0  0  0  0  0  0  0  0  0  0  0  0
    2.7314   -2.2991    1.6851 H   0  0  0  0  0  0  0  0  0  0  0  0
    4.3419   -1.2472    0.0814 H   0  0  0  0  0  0  0  0  0  0  0  0
    5.7268    3.3367   -0.7226 H   0  0  0  0  0  0  0  0  0  0  0  0
    2.9341    3.4445    2.4190 H   0  0  0  0  0  0  0  0  0  0  0  0
    1.5102   -0.8631    3.3424 H   0  0  0  0  0  0  0  0  0  0  0  0
    3.7925    5.5012    1.6530 H   0  0  0  0  0  0  0  0  0  0  0  0
    4.7360    5.5097    0.1478 H   0  0  0  0  0  0  0  0  0  0  0  0
    6.6237    4.7507    1.4041 H   0  0  0  0  0  0  0  0  0  0  0  0
    4.8858    4.8635    3.7670 H   0  0  0  0  0  0  0  0  0  0  0  0
    6.3616    3.8715    3.5488 H   0  0  0  0  0  0  0  0  0  0  0  0
    7.7765    5.9241    3.7068 H   0  0  0  0  0  0  0  0  0  0  0  0
    7.0453    7.0577    1.6096 H   0  0  0  0  0  0  0  0  0  0  0  0
    5.4024    7.2876    2.2962 H   0  0  0  0  0  0  0  0  0  0  0  0
    6.9953    8.8572    4.0838 H   0  0  0  0  0  0  0  0  0  0  0  0
    6.3073   10.1267    6.1248 H   0  0  0  0  0  0  0  0  0  0  0  0
    5.2493    8.8839    8.0200 H   0  0  0  0  0  0  0  0  0  0  0  0
    5.5303    5.2893    6.0352 H   0  0  0  0  0  0  0  0  0  0  0  0
  1  2  1  0  0  0  0
  1 11  2  0  0  0  0
  1 24  1  0  0  0  0
  2  3  2  0  0  0  0
  2 25  1  0  0  0  0
  3  4  1  0  0  0  0
  3  9  1  0  0  0  0
  4  5  2  0  0  0  0
  4  6  1  0  0  0  0
  6  7  2  0  0  0  0
  6 26  1  0  0  0  0
  7  8  1  0  0  0  0
  7 13  1  0  0  0  0
  8  9  1  0  0  0  0
  8 27  1  0  0  0  0
  9 10  2  0  0  0  0
 10 11  1  0  0  0  0
 10 12  1  0  0  0  0
 11 28  1  0  0  0  0
 13 14  1  0  0  0  0
 13 29  1  0  0  0  0
 13 30  1  0  0  0  0
 14 15  1  0  0  0  0
 14 17  1  0  0  0  0
 14 31  1  0  0  0  0
 15 16  1  0  0  0  0
 15 32  1  0  0  0  0
 15 33  1  0  0  0  0
 16 17  1  0  0  0  0
 16 18  1  0  0  0  0
 16 34  1  0  0  0  0
 17 35  1  0  0  0  0
 17 36  1  0  0  0  0
 18 19  1  0  0  0  0
 18 23  2  0  0  0  0
 19 20  2  0  0  0  0
 19 37  1  0  0  0  0
 20 21  1  0  0  0  0
 20 38  1  0  0  0  0
 21 22  2  0  0  0  0
 21 39  1  0  0  0  0
 22 23  1  0  0  0  0
 23 40  1  0  0  0  0
M  CHG  1  14   1
M  END
$$$$
