
  -OEChem-12102412493D

 40 43  0     0  0  0  0  0  0999 V2000
    4.9638   -1.4240   -0.2504 C   0  0  0  0  0  0  0  0  0  0  0  0
    4.1198   -0.6674    0.5521 C   0  0  0  0  0  0  0  0  0  0  0  0
    4.3350    0.7130    0.7128 C   0  0  0  0  0  0  0  0  0  0  0  0
    3.4239    1.5383    1.5427 C   0  0  0  0  0  0  0  0  0  0  0  0
    2.4679    1.0723    2.1613 O   0  0  0  0  0  0  0  0  0  0  0  0
    3.7552    2.9700    1.5851 C   0  0  0  0  0  0  0  0  0  0  0  0
    4.8300    3.4823    0.9273 C   0  0  0  0  0  0  0  0  0  0  0  0
    5.6884    2.6809    0.2045 N   0  0  0  0  0  0  0  0  0  0  0  0
    5.4242    1.3185    0.0564 C   0  0  0  0  0  0  0  0  0  0  0  0
    6.2565    0.5321   -0.7515 C   0  0  0  0  0  0  0  0  0  0  0  0
    6.0478   -0.8204   -0.9177 C   0  0  0  0  0  0  0  0  0  0  0  0
    7.2886    1.1677   -1.3743 F   0  0  0  0  0  0  0  0  0  0  0  0
    5.2475    4.9162    1.0768 C   0  0  0  0  0  0  0  0  0  0  0  0
    6.2679    5.0305    2.1850 N   0  3  0  0  0  0  0  0  0  0  0  0
    5.8164    4.8196    3.6348 C   0  0  0  0  0  0  0  0  0  0  0  0
    6.7080    6.0086    4.0746 C   0  0  0  0  0  0  0  0  0  0  0  0
    6.8073    6.4082    2.5791 C   0  0  0  0  0  0  0  0  0  0  0  0
    6.1330    7.0163    5.0345 C   0  0  0  0  0  0  0  0  0  0  0  0
    6.5910    8.3409    5.0515 C   0  0  0  0  0  0  0  0  0  0  0  0
    6.0414    9.2321    5.9703 C   0  0  0  0  0  0  0  0  0  0  0  0
    5.0537    8.7653    6.8473 C   0  0  0  0  0  0  0  0  0  0  0  0
    4.6128    7.5017    6.8497 N   0  0  0  0  0  0  0  0  0  0  0  0
    5.1477    6.6560    5.9627 C   0  0  0  0  0  0  0  0  0  0  0  0
    4.7919   -2.4885   -0.3745 H   0  0  0  0  0  0  0  0  0  0  0  0
    3.2750   -1.1128    1.0675 H   0  0  0  0  0  0  0  0  0  0  0  0
    3.1043    3.6126    2.1692 H   0  0  0  0  0  0  0  0  0  0  0  0
    6.3247    3.0915   -0.4703 H   0  0  0  0  0  0  0  0  0  0  0  0
    6.7168   -1.3914   -1.5541 H   0  0  0  0  0  0  0  0  0  0  0  0
    4.4040    5.5487    1.3529 H   0  0  0  0  0  0  0  0  0  0  0  0
    5.7157    5.3254    0.1757 H   0  0  0  0  0  0  0  0  0  0  0  0
    7.0412    4.3919    1.9750 H   0  0  0  0  0  0  0  0  0  0  0  0
    4.7481    5.0256    3.6924 H   0  0  0  0  0  0  0  0  0  0  0  0
    6.0302    3.8166    4.0008 H   0  0  0  0  0  0  0  0  0  0  0  0
    7.6769    5.6436    4.4310 H   0  0  0  0  0  0  0  0  0  0  0  0
    7.7826    6.6182    2.1402 H   0  0  0  0  0  0  0  0  0  0  0  0
    6.0776    7.1632    2.2831 H   0  0  0  0  0  0  0  0  0  0  0  0
    7.3669    8.6746    4.3646 H   0  0  0  0  0  0  0  0  0  0  0  0
    6.3682   10.2664    6.0138 H   0  0  0  0  0  0  0  0  0  0  0  0
    4.6020    9.4339    7.5771 H   0  0  0  0  0  0  0  0  0  0  0  0
    4.7695    5.6337    6.0060 H   0  0  0  0  0  0  0  0  0  0  0  0
  1  2  1  0  0  0  0
  1 11  2  0  0  0  0
  1 24  1  0  0  0  0
  2  3  2  0  0  0  0
  2 25  1  0  0  0  0
  3  4  1  0  0  0  0
  3  9  1  0  0  0  0
  4  5  2  0  0  0  0
  4  6  1  0  0  0  0
  6  7  2  0  0  0  0
  6 26  1  0  0  0  0
  7  8  1  0  0  0  0
  7 13  1  0  0  0  0
  8  9  1  0  0  0  0
  8 27  1  0  0  0  0
  9 10  2  0  0  0  0
 10 11  1  0  0  0  0
 10 12  1  0  0  0  0
 11 28  1  0  0  0  0
 13 14  1  0  0  0  0
 13 29  1  0  0  0  0
 13 30  1  0  0  0  0
 14 15  1  0  0  0  0
 14 17  1  0  0  0  0
 14 31  1  0  0  0  0
 15 16  1  0  0  0  0
 15 32  1  0  0  0  0
 15 33  1  0  0  0  0
 16 17  1  0  0  0  0
 16 18  1  0  0  0  0
 16 34  1  0  0  0  0
 17 35  1  0  0  0  0
 17 36  1  0  0  0  0
 18 19  1  0  0  0  0
 18 23  2  0  0  0  0
 19 20  2  0  0  0  0
 19 37  1  0  0  0  0
 20 21  1  0  0  0  0
 20 38  1  0  0  0  0
 21 22  2  0  0  0  0
 21 39  1  0  0  0  0
 22 23  1  0  0  0  0
 23 40  1  0  0  0  0
M  CHG  1  14   1
M  END
$$$$
