45
-1 1 C17ClH16N4O6S
C                     5.955913197355    -4.312677609844    -0.160541739839
S                     4.328801919917    -5.057951811765     0.132082224317
O                     4.390703260236    -5.706444497288     1.453186709442
O                     4.025847601677    -5.878803129373    -1.059517462889
C                     3.271948012309    -3.614434302402     0.249349381189
C                     3.379034265324    -2.892974339695     1.448236907524
C                     2.748426573582    -1.664547908622     1.574226656405
C                     2.030350349880    -1.105088907788     0.508424843715
C                     1.858640610765    -1.874274876282    -0.646252969437
C                     2.472117089913    -3.122905568430    -0.801629865615
O                     2.231081537796    -3.864694445197    -1.931224959445
C                     3.178797900434    -3.726755255762    -2.992361577596
C                     3.018756502939    -4.984597155695    -3.854618408387
N                     4.274146200970    -5.370112485237    -4.486814351442
C                     5.306759834085    -6.067398712193    -3.970311686400
N                     6.269600139613    -6.136570418208    -4.874781755884
N                     5.802867787174    -5.456437031319    -5.962681511465
N                     4.610226779761    -4.989261440049    -5.742202033308
Cl                    0.898648305234    -1.259532959795    -1.977903157313
C                     1.310748381277     0.223884987512     0.737049481000
C                     1.812283205414     1.406723802030     0.067954736017
C                     3.092457267364     1.338220806672    -0.599778361918
O                     3.812973585394     0.314486735402    -0.650878211096
C                     3.623443856628     2.586334651438    -1.306352574981
C                     3.118589096381     3.887317432424    -0.688304840832
C                     1.593804170575     3.862663457770    -0.650341133270
C                     1.006737105642     2.626565105458     0.052487875711
O                    -0.130958606470     2.736856568963     0.526675657701
O                     0.351028004039     0.140098999762     1.513966405744
H                     5.928987094511    -3.736752741506    -1.086143818593
H                     6.201772898261    -3.667104273283     0.682886833502
H                     6.663357637049    -5.141488488257    -0.237109194800
H                     3.951156963653    -3.309987079998     2.271561631165
H                     2.826257328006    -1.101554512031     2.499088368615
H                     4.196433262560    -3.685619167864    -2.595046818656
H                     2.988632010700    -2.806323460610    -3.554959414223
H                     2.280177398170    -4.849212283489    -4.645131292702
H                     2.708091035552    -5.796707328342    -3.197932128147
H                     5.302005123929    -6.476320190067    -2.968935103567
H                     4.715321707182     2.515924935339    -1.304262319707
H                     3.301794601844     2.528032213579    -2.356562535707
H                     3.511293959802     3.983403498841     0.332619172446
H                     3.482748775781     4.754625831202    -1.254817138873
H                     1.174149507756     4.739531072435    -0.148405621440
H                     1.200837036346     3.866424283164    -1.677516592110
