44
1 1 C17FH21N3O2
C                    -5.100784214255    -4.136009205094     3.681890098394
C                    -5.035407063388    -3.669266052148     2.376956215765
C                    -5.107423028118    -2.286669926285     2.123789799978
C                    -5.249633524327    -1.372563280497     3.189285531278
C                    -5.314319559173    -1.854553939212     4.508276493207
C                    -5.238110330724    -3.214961717549     4.730406480375
F                    -5.298179611913    -3.691638034750     5.993542433169
C                    -5.336019682512     0.087437617427     2.930619800083
O                    -5.428006054324     0.917924516485     3.840187851688
C                    -5.287234168697     0.459792955336     1.519709253797
C                    -5.133855202245    -0.466890618759     0.530511737386
N                    -5.035002375117    -1.802694297394     0.819423052441
C                    -4.962322642244    -0.080402846716    -0.915747444398
N                    -3.538004258887    -0.132941671608    -1.268484188109
C                    -3.110515587848     0.388725085664    -2.587987144865
C                    -1.816407400923     0.887116872342    -1.905120256052
C                    -2.634224839747     0.832192500709    -0.595119829720
N                    -0.726676951491    -0.162425335537    -1.920345372333
C                    -0.152151058361    -0.400825743898    -3.302244095550
C                     0.932533321236    -1.473472109259    -3.235326636826
O                     1.959936241609    -1.106854798599    -2.331395068655
C                     1.457085994053    -0.947943062155    -1.015540598263
C                     0.402155529186     0.153825195135    -0.957657649762
H                    -5.052531523681    -5.197119687183     3.905407699336
H                    -4.937023193104    -4.373436895782     1.553776359677
H                    -5.425996599119    -1.148525815863     5.325115075901
H                    -5.374885102750     1.512873104460     1.274076559330
H                    -4.938819178223    -2.466893888590     0.062513339054
H                    -5.375145299184     0.927405715776    -1.068883746056
H                    -5.501948128849    -0.766586845831    -1.578890353372
H                    -3.053207987270    -0.351987201235    -3.391319812784
H                    -3.698970255971     1.249803089550    -2.937409418868
H                    -1.373465109592     1.830644924360    -2.222100548556
H                    -3.097590878986     1.809295671970    -0.400015049703
H                    -2.169579313514     0.475551529872     0.327334089140
H                    -1.178570402344    -1.032599784547    -1.606314740060
H                    -0.965363083795    -0.696737475480    -3.965179016713
H                     0.260904309549     0.553437763235    -3.635544604822
H                     0.494897364968    -2.444579173546    -2.953932400468
H                     1.390183341707    -1.580480149882    -4.220481832026
H                     1.042750123128    -1.897107137222    -0.640318850281
H                     2.298461248689    -0.669945233304    -0.378314143181
H                     0.819158437377     1.112241515680    -1.273581873890
H                    -0.018394861314     0.251749501471     0.043144516500
