
  -OEChem-12122420533D

 44 47  0     0  0  0  0  0  0999 V2000
   -8.0831   -0.3939    4.3100 C   0  0  0  0  0  0  0  0  0  0  0  0
   -7.7871    0.0223    3.0201 C   0  0  0  0  0  0  0  0  0  0  0  0
   -6.5916   -0.3960    2.4076 C   0  0  0  0  0  0  0  0  0  0  0  0
   -5.6911   -1.2350    3.0981 C   0  0  0  0  0  0  0  0  0  0  0  0
   -5.9986   -1.6506    4.4051 C   0  0  0  0  0  0  0  0  0  0  0  0
   -7.1787   -1.2276    4.9832 C   0  0  0  0  0  0  0  0  0  0  0  0
   -7.4867   -1.6212    6.2387 F   0  0  0  0  0  0  0  0  0  0  0  0
   -4.4298   -1.6780    2.4559 C   0  0  0  0  0  0  0  0  0  0  0  0
   -3.5965   -2.3869    3.0347 O   0  0  0  0  0  0  0  0  0  0  0  0
   -4.2467   -1.2087    1.0904 C   0  0  0  0  0  0  0  0  0  0  0  0
   -5.1419   -0.3849    0.4733 C   0  0  0  0  0  0  0  0  0  0  0  0
   -6.2798    0.0223    1.1131 N   0  0  0  0  0  0  0  0  0  0  0  0
   -4.9479    0.1283   -0.9390 C   0  0  0  0  0  0  0  0  0  0  0  0
   -3.5403    0.1098   -1.2975 N   0  0  0  0  0  0  0  0  0  0  0  0
   -3.0926    0.5504   -2.6339 C   0  0  0  0  0  0  0  0  0  0  0  0
   -1.7692    0.9871   -1.9592 C   0  0  0  0  0  0  0  0  0  0  0  0
   -2.6087    1.0683   -0.6638 C   0  0  0  0  0  0  0  0  0  0  0  0
   -0.7883   -0.1634   -1.8863 N   0  3  0  0  0  0  0  0  0  0  0  0
   -0.2053   -0.5339   -3.2348 C   0  0  0  0  0  0  0  0  0  0  0  0
    0.7528   -1.7127   -3.0784 C   0  0  0  0  0  0  0  0  0  0  0  0
    1.7891   -1.4100   -2.1613 O   0  0  0  0  0  0  0  0  0  0  0  0
    1.2695   -1.1304   -0.8716 C   0  0  0  0  0  0  0  0  0  0  0  0
    0.3409    0.0809   -0.9031 C   0  0  0  0  0  0  0  0  0  0  0  0
   -8.9994   -0.0882    4.8052 H   0  0  0  0  0  0  0  0  0  0  0  0
   -8.4811    0.6675    2.4863 H   0  0  0  0  0  0  0  0  0  0  0  0
   -5.3044   -2.2961    4.9335 H   0  0  0  0  0  0  0  0  0  0  0  0
   -3.3675   -1.5434    0.5547 H   0  0  0  0  0  0  0  0  0  0  0  0
   -6.9276    0.6423    0.6431 H   0  0  0  0  0  0  0  0  0  0  0  0
   -5.3744    1.1440   -1.0288 H   0  0  0  0  0  0  0  0  0  0  0  0
   -5.4867   -0.5132   -1.6469 H   0  0  0  0  0  0  0  0  0  0  0  0
   -3.0837   -0.2241   -3.4067 H   0  0  0  0  0  0  0  0  0  0  0  0
   -3.6201    1.4363   -3.0184 H   0  0  0  0  0  0  0  0  0  0  0  0
   -1.2377    1.8659   -2.3224 H   0  0  0  0  0  0  0  0  0  0  0  0
   -3.0251    2.0804   -0.5479 H   0  0  0  0  0  0  0  0  0  0  0  0
   -2.1825    0.7479    0.2895 H   0  0  0  0  0  0  0  0  0  0  0  0
   -1.3403   -0.9634   -1.5436 H   0  0  0  0  0  0  0  0  0  0  0  0
   -1.0270   -0.7756   -3.9091 H   0  0  0  0  0  0  0  0  0  0  0  0
    0.3194    0.3511   -3.6008 H   0  0  0  0  0  0  0  0  0  0  0  0
    0.2036   -2.6138   -2.7626 H   0  0  0  0  0  0  0  0  0  0  0  0
    1.2222   -1.9211   -4.0416 H   0  0  0  0  0  0  0  0  0  0  0  0
    0.7428   -2.0076   -0.4646 H   0  0  0  0  0  0  0  0  0  0  0  0
    2.1178   -0.9122   -0.2205 H   0  0  0  0  0  0  0  0  0  0  0  0
    0.8684    0.9716   -1.2508 H   0  0  0  0  0  0  0  0  0  0  0  0
   -0.0936    0.2715    0.0779 H   0  0  0  0  0  0  0  0  0  0  0  0
  1  2  1  0  0  0  0
  1  6  2  0  0  0  0
  1 24  1  0  0  0  0
  2  3  2  0  0  0  0
  2 25  1  0  0  0  0
  3  4  1  0  0  0  0
  3 12  1  0  0  0  0
  4  5  2  0  0  0  0
  4  8  1  0  0  0  0
  5  6  1  0  0  0  0
  5 26  1  0  0  0  0
  6  7  1  0  0  0  0
  8  9  2  0  0  0  0
  8 10  1  0  0  0  0
 10 11  2  0  0  0  0
 10 27  1  0  0  0  0
 11 12  1  0  0  0  0
 11 13  1  0  0  0  0
 12 28  1  0  0  0  0
 13 14  1  0  0  0  0
 13 29  1  0  0  0  0
 13 30  1  0  0  0  0
 14 15  1  0  0  0  0
 14 17  1  0  0  0  0
 15 16  1  0  0  0  0
 15 31  1  0  0  0  0
 15 32  1  0  0  0  0
 16 17  1  0  0  0  0
 16 18  1  0  0  0  0
 16 33  1  0  0  0  0
 17 34  1  0  0  0  0
 17 35  1  0  0  0  0
 18 19  1  0  0  0  0
 18 23  1  0  0  0  0
 18 36  1  0  0  0  0
 19 20  1  0  0  0  0
 19 37  1  0  0  0  0
 19 38  1  0  0  0  0
 20 21  1  0  0  0  0
 20 39  1  0  0  0  0
 20 40  1  0  0  0  0
 21 22  1  0  0  0  0
 22 23  1  0  0  0  0
 22 41  1  0  0  0  0
 22 42  1  0  0  0  0
 23 43  1  0  0  0  0
 23 44  1  0  0  0  0
M  CHG  1  18   1
M  END
$$$$
