
  -OEChem-12122420533D

 44 47  0     0  0  0  0  0  0999 V2000
   -7.1569   -5.5068   -1.9501 C   0  0  0  0  0  0  0  0  0  0  0  0
   -6.4138   -4.5593   -1.2607 C   0  0  0  0  0  0  0  0  0  0  0  0
   -6.4889   -3.2042   -1.6332 C   0  0  0  0  0  0  0  0  0  0  0  0
   -7.3181   -2.8031   -2.7022 C   0  0  0  0  0  0  0  0  0  0  0  0
   -8.0669   -3.7700   -3.3954 C   0  0  0  0  0  0  0  0  0  0  0  0
   -7.9739   -5.0931   -3.0121 C   0  0  0  0  0  0  0  0  0  0  0  0
   -8.6885   -6.0329   -3.6702 F   0  0  0  0  0  0  0  0  0  0  0  0
   -7.4088   -1.3743   -3.0978 C   0  0  0  0  0  0  0  0  0  0  0  0
   -8.0987   -0.9918   -4.0481 O   0  0  0  0  0  0  0  0  0  0  0  0
   -6.6064   -0.4648   -2.2848 C   0  0  0  0  0  0  0  0  0  0  0  0
   -5.8128   -0.9104   -1.2690 C   0  0  0  0  0  0  0  0  0  0  0  0
   -5.7439   -2.2424   -0.9548 N   0  0  0  0  0  0  0  0  0  0  0  0
   -4.8986    0.0040   -0.4956 C   0  0  0  0  0  0  0  0  0  0  0  0
   -3.5157   -0.2035   -0.9399 N   0  0  0  0  0  0  0  0  0  0  0  0
   -3.2014    0.1553   -2.3445 C   0  0  0  0  0  0  0  0  0  0  0  0
   -1.8482    0.7155   -1.8590 C   0  0  0  0  0  0  0  0  0  0  0  0
   -2.4700    0.7219   -0.4466 C   0  0  0  0  0  0  0  0  0  0  0  0
   -0.6645   -0.2190   -2.0324 N   0  3  0  0  0  0  0  0  0  0  0  0
   -0.8741   -1.6478   -1.5602 C   0  0  0  0  0  0  0  0  0  0  0  0
    0.4099   -2.4435   -1.7791 C   0  0  0  0  0  0  0  0  0  0  0  0
    0.7966   -2.4294   -3.1429 O   0  0  0  0  0  0  0  0  0  0  0  0
    1.0685   -1.1120   -3.5873 C   0  0  0  0  0  0  0  0  0  0  0  0
   -0.1674   -0.2230   -3.4669 C   0  0  0  0  0  0  0  0  0  0  0  0
   -7.1216   -6.5577   -1.6809 H   0  0  0  0  0  0  0  0  0  0  0  0
   -5.7827   -4.8655   -0.4293 H   0  0  0  0  0  0  0  0  0  0  0  0
   -8.7050   -3.4573   -4.2158 H   0  0  0  0  0  0  0  0  0  0  0  0
   -6.6574    0.5940   -2.5154 H   0  0  0  0  0  0  0  0  0  0  0  0
   -5.1464   -2.5397   -0.1946 H   0  0  0  0  0  0  0  0  0  0  0  0
   -4.9452   -0.2049    0.5797 H   0  0  0  0  0  0  0  0  0  0  0  0
   -5.2218    1.0444   -0.6490 H   0  0  0  0  0  0  0  0  0  0  0  0
   -3.2192   -0.6741   -3.0573 H   0  0  0  0  0  0  0  0  0  0  0  0
   -3.8237    0.9664   -2.7462 H   0  0  0  0  0  0  0  0  0  0  0  0
   -1.5298    1.6754   -2.2654 H   0  0  0  0  0  0  0  0  0  0  0  0
   -2.8397    1.7290   -0.2050 H   0  0  0  0  0  0  0  0  0  0  0  0
   -1.8744    0.3569    0.3985 H   0  0  0  0  0  0  0  0  0  0  0  0
    0.0913    0.1712   -1.4562 H   0  0  0  0  0  0  0  0  0  0  0  0
   -1.1638   -1.6201   -0.5105 H   0  0  0  0  0  0  0  0  0  0  0  0
   -1.6948   -2.0595   -2.1450 H   0  0  0  0  0  0  0  0  0  0  0  0
    1.2216   -2.0567   -1.1419 H   0  0  0  0  0  0  0  0  0  0  0  0
    0.2326   -3.4851   -1.5046 H   0  0  0  0  0  0  0  0  0  0  0  0
    1.9101   -0.6782   -3.0238 H   0  0  0  0  0  0  0  0  0  0  0  0
    1.3611   -1.1763   -4.6369 H   0  0  0  0  0  0  0  0  0  0  0  0
   -0.9863   -0.6021   -4.0799 H   0  0  0  0  0  0  0  0  0  0  0  0
    0.0509    0.8098   -3.7477 H   0  0  0  0  0  0  0  0  0  0  0  0
  1  2  1  0  0  0  0
  1  6  2  0  0  0  0
  1 24  1  0  0  0  0
  2  3  2  0  0  0  0
  2 25  1  0  0  0  0
  3  4  1  0  0  0  0
  3 12  1  0  0  0  0
  4  5  2  0  0  0  0
  4  8  1  0  0  0  0
  5  6  1  0  0  0  0
  5 26  1  0  0  0  0
  6  7  1  0  0  0  0
  8  9  2  0  0  0  0
  8 10  1  0  0  0  0
 10 11  2  0  0  0  0
 10 27  1  0  0  0  0
 11 12  1  0  0  0  0
 11 13  1  0  0  0  0
 12 28  1  0  0  0  0
 13 14  1  0  0  0  0
 13 29  1  0  0  0  0
 13 30  1  0  0  0  0
 14 15  1  0  0  0  0
 14 17  1  0  0  0  0
 15 16  1  0  0  0  0
 15 31  1  0  0  0  0
 15 32  1  0  0  0  0
 16 17  1  0  0  0  0
 16 18  1  0  0  0  0
 16 33  1  0  0  0  0
 17 34  1  0  0  0  0
 17 35  1  0  0  0  0
 18 19  1  0  0  0  0
 18 23  1  0  0  0  0
 18 36  1  0  0  0  0
 19 20  1  0  0  0  0
 19 37  1  0  0  0  0
 19 38  1  0  0  0  0
 20 21  1  0  0  0  0
 20 39  1  0  0  0  0
 20 40  1  0  0  0  0
 21 22  1  0  0  0  0
 22 23  1  0  0  0  0
 22 41  1  0  0  0  0
 22 42  1  0  0  0  0
 23 43  1  0  0  0  0
 23 44  1  0  0  0  0
M  CHG  1  18   1
M  END
$$$$
