
  -OEChem-12102412493D

 45 47  0     0  0  0  0  0  0999 V2000
    6.2552   -3.9473    0.1383 C   0  0  0  0  0  0  0  0  0  0  0  0
    4.7514   -4.9116    0.4649 S   0  0  0  0  0  0  0  0  0  0  0  0
    4.9085   -5.4807    1.8144 O   0  0  0  0  0  0  0  0  0  0  0  0
    4.5701   -5.8071   -0.6914 O   0  0  0  0  0  0  0  0  0  0  0  0
    3.4944   -3.6352    0.5272 C   0  0  0  0  0  0  0  0  0  0  0  0
    3.5010   -2.8249    1.6732 C   0  0  0  0  0  0  0  0  0  0  0  0
    2.6579   -1.7271    1.7515 C   0  0  0  0  0  0  0  0  0  0  0  0
    1.7646   -1.4183    0.7144 C   0  0  0  0  0  0  0  0  0  0  0  0
    1.7588   -2.2443   -0.4139 C   0  0  0  0  0  0  0  0  0  0  0  0
    2.6008   -3.3566   -0.5241 C   0  0  0  0  0  0  0  0  0  0  0  0
    2.4809   -4.1985   -1.6048 O   0  0  0  0  0  0  0  0  0  0  0  0
    3.3169   -3.9109   -2.7291 C   0  0  0  0  0  0  0  0  0  0  0  0
    3.2559   -5.1174   -3.6463 C   0  0  0  0  0  0  0  0  0  0  0  0
    1.9580   -5.2621   -4.3048 N   0  0  0  0  0  0  0  0  0  0  0  0
    0.7003   -5.1921   -3.8206 C   0  0  0  0  0  0  0  0  0  0  0  0
   -0.1487   -5.4381   -4.8058 N   0  0  0  0  0  0  0  0  0  0  0  0
    0.6185   -5.6647   -5.9092 N   0  0  0  0  0  0  0  0  0  0  0  0
    1.8817   -5.5631   -5.6258 N   0  0  0  0  0  0  0  0  0  0  0  0
    0.6274   -1.9342   -1.7186 Cl  0  0  0  0  0  0  0  0  0  0  0  0
    1.0456   -0.0683    0.7480 C   0  0  0  0  0  0  0  0  0  0  0  0
   -0.3276   -0.0070    1.1834 C   0  0  0  0  0  0  0  0  0  0  0  0
   -0.9834   -1.2402    1.5638 C   0  0  0  0  0  0  0  0  0  0  0  0
   -0.4111   -2.3499    1.6220 O   0  0  0  0  0  0  0  0  0  0  0  0
   -2.4663   -1.2049    1.9364 C   0  0  0  0  0  0  0  0  0  0  0  0
   -3.2204   -0.0476    1.2875 C   0  0  0  0  0  0  0  0  0  0  0  0
   -2.5130    1.2620    1.6247 C   0  0  0  0  0  0  0  0  0  0  0  0
   -1.0230    1.2773    1.2434 C   0  0  0  0  0  0  0  0  0  0  0  0
   -0.5030    2.3808    1.0353 O   0  0  0  0  0  0  0  0  0  0  0  0
    1.7808    0.8609    0.3837 O   0  5  0  0  0  0  0  0  0  0  0  0
    6.1475   -3.4250   -0.8134 H   0  0  0  0  0  0  0  0  0  0  0  0
    6.4054   -3.2376    0.9523 H   0  0  0  0  0  0  0  0  0  0  0  0
    7.0750   -4.6679    0.0942 H   0  0  0  0  0  0  0  0  0  0  0  0
    4.1620   -3.0746    2.4979 H   0  0  0  0  0  0  0  0  0  0  0  0
    2.6664   -1.0952    2.6345 H   0  0  0  0  0  0  0  0  0  0  0  0
    4.3551   -3.7807   -2.4073 H   0  0  0  0  0  0  0  0  0  0  0  0
    2.9755   -2.9978   -3.2318 H   0  0  0  0  0  0  0  0  0  0  0  0
    3.4761   -6.0120   -3.0592 H   0  0  0  0  0  0  0  0  0  0  0  0
    3.9909   -5.0221   -4.4473 H   0  0  0  0  0  0  0  0  0  0  0  0
    0.4621   -4.9507   -2.7953 H   0  0  0  0  0  0  0  0  0  0  0  0
   -2.8837   -2.1810    1.6719 H   0  0  0  0  0  0  0  0  0  0  0  0
   -2.5274   -1.1196    3.0313 H   0  0  0  0  0  0  0  0  0  0  0  0
   -3.2364   -0.1871    0.1988 H   0  0  0  0  0  0  0  0  0  0  0  0
   -4.2653   -0.0265    1.6239 H   0  0  0  0  0  0  0  0  0  0  0  0
   -2.9724    2.1239    1.1319 H   0  0  0  0  0  0  0  0  0  0  0  0
   -2.5745    1.4452    2.7076 H   0  0  0  0  0  0  0  0  0  0  0  0
  1  2  1  0  0  0  0
  1 30  1  0  0  0  0
  1 31  1  0  0  0  0
  1 32  1  0  0  0  0
  2  3  2  0  0  0  0
  2  4  2  0  0  0  0
  2  5  1  0  0  0  0
  5  6  2  0  0  0  0
  5 10  1  0  0  0  0
  6  7  1  0  0  0  0
  6 33  1  0  0  0  0
  7  8  2  0  0  0  0
  7 34  1  0  0  0  0
  8  9  1  0  0  0  0
  8 20  1  0  0  0  0
  9 10  2  0  0  0  0
  9 19  1  0  0  0  0
 10 11  1  0  0  0  0
 11 12  1  0  0  0  0
 12 13  1  0  0  0  0
 12 35  1  0  0  0  0
 12 36  1  0  0  0  0
 13 14  1  0  0  0  0
 13 37  1  0  0  0  0
 13 38  1  0  0  0  0
 14 15  1  0  0  0  0
 14 18  1  0  0  0  0
 15 16  2  0  0  0  0
 15 39  1  0  0  0  0
 16 17  1  0  0  0  0
 17 18  2  0  0  0  0
 20 21  2  0  0  0  0
 20 29  1  0  0  0  0
 21 22  1  0  0  0  0
 21 27  1  0  0  0  0
 22 23  2  0  0  0  0
 22 24  1  0  0  0  0
 24 25  1  0  0  0  0
 24 40  1  0  0  0  0
 24 41  1  0  0  0  0
 25 26  1  0  0  0  0
 25 42  1  0  0  0  0
 25 43  1  0  0  0  0
 26 27  1  0  0  0  0
 26 44  1  0  0  0  0
 26 45  1  0  0  0  0
 27 28  2  0  0  0  0
M  CHG  1  29  -1
M  END
$$$$
