24
0 1 C9H11N3O
C                     1.075216145148     6.976437798258     0.506807043147
C                     0.767341092693     6.486799856794     1.774035737156
C                     1.339109956681     6.015050809146    -0.474677038072
C                     0.935040049558     4.347680459786     1.011628295892
C                     0.226007088671     2.105565402519     0.392742509087
C                     0.406591886332     0.613246869156     0.639580632197
C                     0.535279608179     0.204797115723     2.109386707576
C                     1.553815492332     1.109055884747     2.800506421912
C                     1.119161645441     2.565996725491     2.698929141790
N                     0.685814151871     5.176069102410     2.037225430784
N                     1.289798408968     4.704834700767    -0.231803949842
N                     0.877152259086     2.967537276674     1.293756289371
O                    -0.411352126389     2.512859602261    -0.565532896859
H                     1.125314584665     8.040044472751     0.298008008893
H                     0.572530731001     7.158385825207     2.609175400380
H                     1.619003277133     6.305661370434    -1.486649341486
H                    -0.424745950848     0.111443424083     0.140614989876
H                     1.320786904714     0.333255280496     0.099184679449
H                    -0.437218599494     0.301041321457     2.608770071804
H                     0.827260368018    -0.848344460291     2.181383865348
H                     1.655776764605     0.851823916870     3.860440564229
H                     2.540064846083     0.984969131201     2.336507555522
H                     0.211630137623     2.736472576812     3.290643642075
H                     1.886490170175     3.228261872350     3.101951283327
