26
0 1 C9H13N3O
C                     1.169971817723    -0.381690262035    -3.560404928185
C                     0.550226213202    -1.322341108765    -4.352085082174
C                     1.512300905142     0.255391685334    -5.597235222346
C                    -0.542505618242     0.126532986330    -8.631771805583
C                     0.015994053103     0.566332462457    -9.976179805120
C                     1.286433540422     1.426716450431    -9.878282433904
C                     1.158930074838     2.489260219578    -8.778725703430
C                     0.770630664614     1.868210023897    -7.432564957844
C                     1.921321513783     1.031158480453    -6.809930268008
N                     1.761414818348     0.592400663207    -4.341663709609
N                     0.778112293729    -0.908610436649    -5.652882672304
N                    -0.436441862601     1.044981890972    -7.612230971573
O                    -1.126471995768    -0.948666516195    -8.470741995019
H                     1.229197944986    -0.352916669255    -2.480160191924
H                    -0.007727781187    -2.219155063533    -4.123905567592
H                     0.172873865477    -0.328693132636   -10.581461922243
H                    -0.785986979801     1.142131751752   -10.455774518762
H                     2.149303835769     0.782060532524    -9.679477249947
H                     1.482280253347     1.906792752377   -10.842552290500
H                     2.099148287448     3.039189156899    -8.666162990170
H                     0.388036245105     3.216367021717    -9.058498069847
H                     0.512438557606     2.662695632036    -6.726182216971
H                     2.732232761374     1.701877307338    -6.514249427026
H                     2.318616227491     0.344809907225    -7.565806651763
H                     0.402290517001    -1.349478766074    -6.487630199339
H                    -0.846883962941     0.700520034182    -6.748637555567
