
  -OEChem-12122420533D

 22 23  0     0  0  0  0  0  0999 V2000
   -4.5969    1.4863    0.1632 C   0  0  0  0  0  0  0  0  0  0  0  0
   -3.4828    1.6501    0.9910 C   0  0  0  0  0  0  0  0  0  0  0  0
   -4.3995    0.7296   -0.9903 C   0  0  0  0  0  0  0  0  0  0  0  0
   -2.2078    0.4043   -0.4332 C   0  0  0  0  0  0  0  0  0  0  0  0
    0.6336   -1.0598    1.0659 C   0  0  0  0  0  0  0  0  0  0  0  0
    1.2605    1.0175   -0.1903 C   0  0  0  0  0  0  0  0  0  0  0  0
   -0.4440   -1.2059    0.2893 C   0  0  0  0  0  0  0  0  0  0  0  0
    0.1836    0.8737   -0.9684 C   0  0  0  0  0  0  0  0  0  0  0  0
    1.5748    0.1104    0.9686 C   0  0  0  0  0  0  0  0  0  0  0  0
   -0.8529   -0.2094   -0.7718 C   0  0  0  0  0  0  0  0  0  0  0  0
   -2.2924    1.1167    0.7033 N   0  0  0  0  0  0  0  0  0  0  0  0
   -3.2128    0.1854   -1.2978 N   0  0  0  0  0  0  0  0  0  0  0  0
   -5.5608    1.9236    0.4050 H   0  0  0  0  0  0  0  0  0  0  0  0
   -3.5467    2.2268    1.9135 H   0  0  0  0  0  0  0  0  0  0  0  0
   -5.2115    0.5497   -1.6939 H   0  0  0  0  0  0  0  0  0  0  0  0
    0.8606   -1.8176    1.8144 H   0  0  0  0  0  0  0  0  0  0  0  0
    1.9607    1.8274   -0.3899 H   0  0  0  0  0  0  0  0  0  0  0  0
   -1.0901   -2.0738    0.4113 H   0  0  0  0  0  0  0  0  0  0  0  0
    0.0085    1.5662   -1.7901 H   0  0  0  0  0  0  0  0  0  0  0  0
    2.6110   -0.2499    0.8899 H   0  0  0  0  0  0  0  0  0  0  0  0
    1.5448    0.6865    1.9063 H   0  0  0  0  0  0  0  0  0  0  0  0
   -1.0070   -0.7369   -1.7210 H   0  0  0  0  0  0  0  0  0  0  0  0
  1  2  1  0  0  0  0
  1  3  2  0  0  0  0
  1 13  1  0  0  0  0
  2 11  2  0  0  0  0
  2 14  1  0  0  0  0
  3 12  1  0  0  0  0
  3 15  1  0  0  0  0
  4 10  1  0  0  0  0
  4 11  1  0  0  0  0
  4 12  2  0  0  0  0
  5  7  2  0  0  0  0
  5  9  1  0  0  0  0
  5 16  1  0  0  0  0
  6  8  2  0  0  0  0
  6  9  1  0  0  0  0
  6 17  1  0  0  0  0
  7 10  1  0  0  0  0
  7 18  1  0  0  0  0
  8 10  1  0  0  0  0
  8 19  1  0  0  0  0
  9 20  1  0  0  0  0
  9 21  1  0  0  0  0
 10 22  1  0  0  0  0
M  END
$$$$
