29
0 1 C10H16N2O
C                     6.383087521255    29.330727888715    67.387024539944
C                     7.272461593698    30.349237165838    67.120905009063
C                     5.950032678559    29.976955399437    65.373250973111
C                     4.695794433096    29.918299439451    60.920799024308
C                     5.178020734422    31.284056664919    60.412970732646
C                     5.822029309847    29.183260879477    61.660149134981
C                     5.766952709806    32.123212418039    61.557310111177
C                     6.385077285777    30.000492349792    62.841501998724
C                     6.865043561197    31.357458761726    62.300955177553
C                     5.358160896223    30.112778493875    64.003811494482
N                     5.567143639638    29.103518482963    66.294950385812
N                     6.980702707279    30.752692624134    65.831282493309
O                     7.392227567694    32.136190293335    63.398135404925
H                     6.285854627279    28.750058221711    68.295511429590
H                     8.056522008612    30.806681002992    67.707639343242
H                     3.838078191485    30.057228290813    61.591123386624
H                     4.340563068637    29.309092002198    60.082014663629
H                     5.945540371506    31.131019065394    59.641968056453
H                     4.358481871549    31.831375075807    59.934484714054
H                     5.472851431048    28.213603035775    62.030831955398
H                     6.633641955372    28.971910623681    60.950532544548
H                     6.180848130662    33.061521740280    61.162489803647
H                     4.977125443361    32.401242330904    62.264505874624
H                     7.264683826432    29.471582458282    63.224915949688
H                     7.685179150752    31.155546254480    61.595002816506
H                     4.619264565592    29.311964169718    63.921572228216
H                     4.802383666999    31.054316257485    63.935952682418
H                     7.436060930044    31.464113581853    65.266202318137
H                     7.608185226585    33.021387300174    63.064676602874
