
  -OEChem-12102412493D

 26 27  0     1  0  0  0  0  0999 V2000
  -14.7659  -12.2594    0.7332 C   0  0  0  0  0  0  0  0  0  0  0  0
  -15.1467  -13.1056    1.7500 C   0  0  0  0  0  0  0  0  0  0  0  0
  -13.0040  -12.5251    1.9552 C   0  0  0  0  0  0  0  0  0  0  0  0
   -9.3749  -10.0366    4.3342 C   0  0  0  0  0  0  0  0  0  0  0  0
  -10.3575   -9.2483    5.1899 C   0  0  0  0  0  0  0  0  0  0  0  0
  -11.7468   -9.0891    4.5636 C   0  0  0  0  0  0  0  0  0  0  0  0
  -12.2421  -10.4363    4.0341 C   0  0  0  0  0  0  0  0  0  0  0  0
  -11.3021  -10.9612    2.9498 C   0  0  2  0  0  0  0  0  0  0  0  0
  -11.6296  -12.4087    2.5360 C   0  0  0  0  0  0  0  0  0  0  0  0
  -13.4380  -11.9051    0.8704 N   0  0  0  0  0  0  0  0  0  0  0  0
  -14.0098  -13.2647    2.5262 N   0  0  0  0  0  0  0  0  0  0  0  0
   -9.9115  -10.9043    3.4143 N   0  0  0  0  0  0  0  0  0  0  0  0
   -8.1578   -9.9460    4.4912 O   0  0  0  0  0  0  0  0  0  0  0  0
  -15.3679  -11.8899   -0.0869 H   0  0  0  0  0  0  0  0  0  0  0  0
  -16.0798  -13.5978    1.9833 H   0  0  0  0  0  0  0  0  0  0  0  0
  -10.4327   -9.7828    6.1453 H   0  0  0  0  0  0  0  0  0  0  0  0
   -9.8875   -8.2866    5.4083 H   0  0  0  0  0  0  0  0  0  0  0  0
  -12.4478   -8.6824    5.3002 H   0  0  0  0  0  0  0  0  0  0  0  0
  -11.7041   -8.3690    3.7370 H   0  0  0  0  0  0  0  0  0  0  0  0
  -12.2899  -11.1614    4.8585 H   0  0  0  0  0  0  0  0  0  0  0  0
  -13.2473  -10.3488    3.6121 H   0  0  0  0  0  0  0  0  0  0  0  0
  -11.4216  -10.3322    2.0572 H   0  0  0  0  0  0  0  0  0  0  0  0
  -11.5225  -13.0640    3.4077 H   0  0  0  0  0  0  0  0  0  0  0  0
  -10.8989  -12.7419    1.7894 H   0  0  0  0  0  0  0  0  0  0  0  0
  -13.9324  -13.8309    3.3607 H   0  0  0  0  0  0  0  0  0  0  0  0
   -9.2069  -11.3407    2.8270 H   0  0  0  0  0  0  0  0  0  0  0  0
  1  2  2  0  0  0  0
  1 10  1  0  0  0  0
  1 14  1  0  0  0  0
  2 11  1  0  0  0  0
  2 15  1  0  0  0  0
  3  9  1  0  0  0  0
  3 10  2  0  0  0  0
  3 11  1  0  0  0  0
  4  5  1  0  0  0  0
  4 12  1  0  0  0  0
  4 13  2  0  0  0  0
  5  6  1  0  0  0  0
  5 16  1  0  0  0  0
  5 17  1  0  0  0  0
  6  7  1  0  0  0  0
  6 18  1  0  0  0  0
  6 19  1  0  0  0  0
  7  8  1  0  0  0  0
  7 20  1  0  0  0  0
  7 21  1  0  0  0  0
  8  9  1  0  0  0  0
  8 12  1  0  0  0  0
  8 22  1  0  0  0  0
  9 23  1  0  0  0  0
  9 24  1  0  0  0  0
 11 25  1  0  0  0  0
 12 26  1  0  0  0  0
M  END
$$$$
