
  -OEChem-12122420533D

 26 27  0     1  0  0  0  0  0999 V2000
    5.3831    4.1391   -9.7920 C   0  0  0  0  0  0  0  0  0  0  0  0
    4.1617    4.7659   -9.8677 C   0  0  0  0  0  0  0  0  0  0  0  0
    4.0073    2.6385  -10.5264 C   0  0  0  0  0  0  0  0  0  0  0  0
    3.8003   -0.9835  -11.7880 C   0  0  0  0  0  0  0  0  0  0  0  0
    5.3082   -1.5493   -9.3602 C   0  0  0  0  0  0  0  0  0  0  0  0
    4.4939   -0.2577   -9.4372 C   0  0  0  0  0  0  0  0  0  0  0  0
    4.5644   -2.6814  -10.0631 C   0  0  0  0  0  0  0  0  0  0  0  0
    4.2990    0.1616  -10.9011 C   0  0  2  0  0  0  0  0  0  0  0  0
    3.3901    1.3846  -11.0709 C   0  0  0  0  0  0  0  0  0  0  0  0
    5.2763    2.8221  -10.2002 N   0  0  0  0  0  0  0  0  0  0  0  0
    3.2897    3.7935  -10.3339 N   0  0  0  0  0  0  0  0  0  0  0  0
    4.1037   -2.2580  -11.3874 N   0  0  0  0  0  0  0  0  0  0  0  0
    3.2076   -0.7809  -12.8506 O   0  0  0  0  0  0  0  0  0  0  0  0
    6.3275    4.5548   -9.4656 H   0  0  0  0  0  0  0  0  0  0  0  0
    3.8381    5.7707   -9.6369 H   0  0  0  0  0  0  0  0  0  0  0  0
    6.2844   -1.3961   -9.8354 H   0  0  0  0  0  0  0  0  0  0  0  0
    5.4934   -1.8372   -8.3201 H   0  0  0  0  0  0  0  0  0  0  0  0
    3.5144   -0.4109   -8.9619 H   0  0  0  0  0  0  0  0  0  0  0  0
    4.9949    0.5511   -8.9005 H   0  0  0  0  0  0  0  0  0  0  0  0
    5.2136   -3.5551  -10.1853 H   0  0  0  0  0  0  0  0  0  0  0  0
    3.7058   -2.9941   -9.4503 H   0  0  0  0  0  0  0  0  0  0  0  0
    5.2846    0.4324  -11.3013 H   0  0  0  0  0  0  0  0  0  0  0  0
    2.4259    1.2003  -10.5787 H   0  0  0  0  0  0  0  0  0  0  0  0
    3.1721    1.5048  -12.1371 H   0  0  0  0  0  0  0  0  0  0  0  0
    2.3051    3.9198  -10.5285 H   0  0  0  0  0  0  0  0  0  0  0  0
    3.7225   -2.9670  -12.0051 H   0  0  0  0  0  0  0  0  0  0  0  0
  1  2  2  0  0  0  0
  1 10  1  0  0  0  0
  1 14  1  0  0  0  0
  2 11  1  0  0  0  0
  2 15  1  0  0  0  0
  3  9  1  0  0  0  0
  3 10  2  0  0  0  0
  3 11  1  0  0  0  0
  4  8  1  0  0  0  0
  4 12  1  0  0  0  0
  4 13  2  0  0  0  0
  5  6  1  0  0  0  0
  5  7  1  0  0  0  0
  5 16  1  0  0  0  0
  5 17  1  0  0  0  0
  6  8  1  0  0  0  0
  6 18  1  0  0  0  0
  6 19  1  0  0  0  0
  7 12  1  0  0  0  0
  7 20  1  0  0  0  0
  7 21  1  0  0  0  0
  8  9  1  0  0  0  0
  8 22  1  0  0  0  0
  9 23  1  0  0  0  0
  9 24  1  0  0  0  0
 11 25  1  0  0  0  0
 12 26  1  0  0  0  0
M  END
$$$$
