26
0 1 C9H13N3O
C                   -14.765928895247   -12.259370867505     0.733152043217
C                   -15.146661563493   -13.105617235408     1.749972916948
C                   -13.003971310417   -12.525124758100     1.955201492018
C                    -9.374945576152   -10.036638751240     4.334201781761
C                   -10.357545739734    -9.248257927199     5.189859809777
C                   -11.746774482795    -9.089143113708     4.563638663730
C                   -12.242083695803   -10.436280350001     4.034103798059
C                   -11.302116609530   -10.961172590542     2.949759139648
C                   -11.629604128310   -12.408734410823     2.536005427156
N                   -13.438012994527   -11.905063732211     0.870398343888
N                   -14.009796368554   -13.264682353866     2.526168160396
N                    -9.911540824712   -10.904326638871     3.414269942655
O                    -8.157753460844    -9.945962061273     4.491158340706
H                   -15.367855145128   -11.889882325967    -0.086935936264
H                   -16.079815736600   -13.597784569854     1.983257292954
H                   -10.432727845800    -9.782830570499     6.145331571360
H                    -9.887464319981    -8.286558691782     5.408341098911
H                   -12.447818762256    -8.682413270878     5.300161142437
H                   -11.704082402227    -8.368977634877     3.737008244139
H                   -12.289919516445   -11.161383480842     4.858483034295
H                   -13.247344666908   -10.348826889009     3.612149156453
H                   -11.421640680747   -10.332157658703     2.057186386762
H                   -11.522537576563   -13.064022536080     3.407746177209
H                   -10.898915717223   -12.741944573670     1.789425427550
H                   -13.932369254630   -13.830904895633     3.360685590597
H                    -9.206856171174   -11.340676858562     2.827017628655
