
  -OEChem-12122420533D

 29 30  0     1  0  0  0  0  0999 V2000
   -5.0926    1.3623    1.4753 C   0  0  0  0  0  0  0  0  0  0  0  0
   -4.4574    2.1505    0.5430 C   0  0  0  0  0  0  0  0  0  0  0  0
   -2.9775    1.0854    1.8315 C   0  0  0  0  0  0  0  0  0  0  0  0
   -0.1838   -1.0464    0.0763 C   0  0  0  0  0  0  0  0  0  0  0  0
    1.0439   -1.5440    0.8538 C   0  0  0  0  0  0  0  0  0  0  0  0
   -1.4887   -1.4162    0.7979 C   0  0  0  0  0  0  0  0  0  0  0  0
    1.0282   -1.0625    2.3125 C   0  0  0  0  0  0  0  0  0  0  0  0
   -1.5184   -0.9202    2.2567 C   0  0  1  0  0  0  0  0  0  0  0  0
   -0.2781   -1.4493    3.0020 C   0  0  2  0  0  0  0  0  0  0  0  0
   -1.6582    0.6145    2.3598 C   0  0  0  0  0  0  0  0  0  0  0  0
   -4.1688    0.7063    2.2660 N   0  0  0  0  0  0  0  0  0  0  0  0
   -3.1046    1.9607    0.7811 N   0  0  0  0  0  0  0  0  0  0  0  0
   -0.2058   -0.9810    4.3563 O   0  0  0  0  0  0  0  0  0  0  0  0
   -6.1571    1.2317    1.6225 H   0  0  0  0  0  0  0  0  0  0  0  0
   -4.8225    2.8053   -0.2351 H   0  0  0  0  0  0  0  0  0  0  0  0
   -0.1179    0.0426   -0.0487 H   0  0  0  0  0  0  0  0  0  0  0  0
   -0.1871   -1.4696   -0.9348 H   0  0  0  0  0  0  0  0  0  0  0  0
    1.0558   -2.6425    0.8370 H   0  0  0  0  0  0  0  0  0  0  0  0
    1.9669   -1.2162    0.3621 H   0  0  0  0  0  0  0  0  0  0  0  0
   -2.3571   -1.0230    0.2580 H   0  0  0  0  0  0  0  0  0  0  0  0
   -1.5951   -2.5091    0.7962 H   0  0  0  0  0  0  0  0  0  0  0  0
    1.8641   -1.4939    2.8732 H   0  0  0  0  0  0  0  0  0  0  0  0
    1.1500    0.0264    2.3571 H   0  0  0  0  0  0  0  0  0  0  0  0
   -2.4115   -1.3399    2.7374 H   0  0  0  0  0  0  0  0  0  0  0  0
   -0.3466   -2.5499    3.0037 H   0  0  0  0  0  0  0  0  0  0  0  0
   -0.8506    1.1204    1.8214 H   0  0  0  0  0  0  0  0  0  0  0  0
   -1.5600    0.9077    3.4092 H   0  0  0  0  0  0  0  0  0  0  0  0
   -2.3434    2.3952    0.2767 H   0  0  0  0  0  0  0  0  0  0  0  0
   -1.0241   -1.2458    4.8068 H   0  0  0  0  0  0  0  0  0  0  0  0
  1  2  2  0  0  0  0
  1 11  1  0  0  0  0
  1 14  1  0  0  0  0
  2 12  1  0  0  0  0
  2 15  1  0  0  0  0
  3 10  1  0  0  0  0
  3 11  2  0  0  0  0
  3 12  1  0  0  0  0
  4  5  1  0  0  0  0
  4  6  1  0  0  0  0
  4 16  1  0  0  0  0
  4 17  1  0  0  0  0
  5  7  1  0  0  0  0
  5 18  1  0  0  0  0
  5 19  1  0  0  0  0
  6  8  1  0  0  0  0
  6 20  1  0  0  0  0
  6 21  1  0  0  0  0
  7  9  1  0  0  0  0
  7 22  1  0  0  0  0
  7 23  1  0  0  0  0
  8  9  1  0  0  0  0
  8 10  1  0  0  0  0
  8 24  1  0  0  0  0
  9 13  1  0  0  0  0
  9 25  1  0  0  0  0
 10 26  1  0  0  0  0
 10 27  1  0  0  0  0
 12 28  1  0  0  0  0
 13 29  1  0  0  0  0
M  END
$$$$
