22
0 1 C10H10N2
C                    -4.596895911515     1.486315393623     0.163225387978
C                    -3.482793687051     1.650059899153     0.991039820411
C                    -4.399483183303     0.729649234048    -0.990266666048
C                    -2.207760957419     0.404303544152    -0.433200720978
C                     0.633628065924    -1.059769689915     1.065949643635
C                     1.260528008747     1.017452198018    -0.190258067112
C                    -0.444023844882    -1.205949486171     0.289348759396
C                     0.183627667166     0.873712321461    -0.968356919740
C                     1.574773084792     0.110401722868     0.968637912839
C                    -0.852873566327    -0.209442354989    -0.771779360169
N                    -2.292438518809     1.116680539879     0.703336034833
N                    -3.212785746151     0.185407956889    -1.297759123379
H                    -5.560761720143     1.923551408339     0.405027458577
H                    -3.546724231468     2.226794154619     1.913488055908
H                    -5.211472042074     0.549667269773    -1.693949592418
H                     0.860623620582    -1.817622910393     1.814437342961
H                     1.960704188869     1.827387293576    -0.389909040296
H                    -1.090072287327    -2.073816336243     0.411317840998
H                     0.008529839209     1.566224946635    -1.790071944515
H                     2.610993600358    -0.249946843427     0.889885966726
H                     1.544819241620     0.686510411495     1.906330415540
H                    -1.007028274819    -0.736926674844    -1.720965295546
