26
0 1 C9H13N3O
C                     5.958229543592     2.576904258452    -4.345923930120
C                     6.294474188485     1.239747119140    -4.373598178412
C                     4.128986187408     1.497688417317    -3.966289182875
C                     2.673563005738    -1.120442354834    -2.530476737121
C                     0.758684758963    -0.160417695409    -0.563088415652
C                     1.051625038797     0.700334462318    -1.791660571544
C                     0.755594660392    -1.635586764855    -0.950702229173
C                     2.441966239358     0.384651378953    -2.366286389207
C                     2.697878227600     1.157987070465    -3.682290246326
N                     4.609069373950     2.729146483462    -4.089546858610
N                     5.113986630025     0.565150693327    -4.133968591934
N                     1.937940371710    -1.963261157275    -1.751543012191
O                     3.525549565224    -1.582946697779    -3.303949866538
H                     6.605329291818     3.431814802491    -4.495619082338
H                     7.231064695520     0.726132195303    -4.538424682001
H                     1.521437281978     0.018662619691     0.204088341059
H                    -0.211578362924     0.094454972917    -0.124932071806
H                     0.286514009996     0.523843601813    -2.559859952631
H                     1.004753548369     1.764229014505    -1.538321972077
H                     0.755003961039    -2.272141889852    -0.059957571880
H                    -0.154162672609    -1.867881426016    -1.522285050329
H                     3.190393617773     0.709481803706    -1.630689160977
H                     2.174717047426     2.115795652151    -3.627132152994
H                     2.261740805941     0.598954131370    -4.518436351686
H                     4.943218117248    -0.433283240873    -4.025608492954
H                     2.130710797590    -2.942828161754    -1.935219485371
