25
0 1 C11H12N2
C                     5.463334380001     1.392783866690     4.832961219599
C                     5.438203950062     2.771692267699     4.617950010024
C                     5.329736618612     0.518202080612     3.749488375350
C                     5.276593870228     3.257414832273     3.316970970321
C                     1.543170902235     2.240437232128    -0.106638161628
C                     2.444947750765     2.639662574804     0.857072248820
C                     3.468788599412     2.210826475708    -1.052549347339
C                     5.167776858477     0.990261564779     2.440807738149
C                     5.142676163005     2.386464567138     2.229684319456
C                     5.009254532959     0.012848041667     1.299606740318
C                     4.966652259055     2.967210509746     0.843002792065
N                     2.192189558154     1.974267794544    -1.295662994238
N                     3.681406911975     2.616183452934     0.238335716447
H                     5.586891226072     0.996316103501     5.837500853372
H                     5.540898640782     3.462620319341     5.450353324350
H                     5.351903777882    -0.555223260061     3.923603410099
H                     5.251030139405     4.331259641138     3.143467452756
H                     0.470930659216     2.127059421918    -0.009221923624
H                     2.333905866350     2.909668504830     1.897233801079
H                     4.281326982258     2.101507057822    -1.760698989751
H                     3.991020941287     0.031332820774     0.897669327395
H                     5.684471085670     0.243555345825     0.468188579330
H                     5.224770429423    -1.006655702312     1.629174502339
H                     5.059873629933     4.057251824331     0.886249212221
H                     5.744361690174     2.602399693664     0.164277746822
