
  -OEChem-12102412493D

 29 30  0     1  0  0  0  0  0999 V2000
    6.3831   29.3307   67.3870 C   0  0  0  0  0  0  0  0  0  0  0  0
    7.2725   30.3492   67.1209 C   0  0  0  0  0  0  0  0  0  0  0  0
    5.9500   29.9770   65.3733 C   0  0  0  0  0  0  0  0  0  0  0  0
    4.6958   29.9183   60.9208 C   0  0  0  0  0  0  0  0  0  0  0  0
    5.1780   31.2841   60.4130 C   0  0  0  0  0  0  0  0  0  0  0  0
    5.8220   29.1833   61.6601 C   0  0  0  0  0  0  0  0  0  0  0  0
    5.7670   32.1232   61.5573 C   0  0  0  0  0  0  0  0  0  0  0  0
    6.3851   30.0005   62.8415 C   0  0  1  0  0  0  0  0  0  0  0  0
    6.8650   31.3575   62.3010 C   0  0  2  0  0  0  0  0  0  0  0  0
    5.3582   30.1128   64.0038 C   0  0  0  0  0  0  0  0  0  0  0  0
    5.5671   29.1035   66.2950 N   0  0  0  0  0  0  0  0  0  0  0  0
    6.9807   30.7527   65.8313 N   0  0  0  0  0  0  0  0  0  0  0  0
    7.3922   32.1362   63.3981 O   0  0  0  0  0  0  0  0  0  0  0  0
    6.2859   28.7501   68.2955 H   0  0  0  0  0  0  0  0  0  0  0  0
    8.0565   30.8067   67.7076 H   0  0  0  0  0  0  0  0  0  0  0  0
    3.8381   30.0572   61.5911 H   0  0  0  0  0  0  0  0  0  0  0  0
    4.3406   29.3091   60.0820 H   0  0  0  0  0  0  0  0  0  0  0  0
    5.9455   31.1310   59.6420 H   0  0  0  0  0  0  0  0  0  0  0  0
    4.3585   31.8314   59.9345 H   0  0  0  0  0  0  0  0  0  0  0  0
    5.4729   28.2136   62.0308 H   0  0  0  0  0  0  0  0  0  0  0  0
    6.6336   28.9719   60.9505 H   0  0  0  0  0  0  0  0  0  0  0  0
    6.1808   33.0615   61.1625 H   0  0  0  0  0  0  0  0  0  0  0  0
    4.9771   32.4012   62.2645 H   0  0  0  0  0  0  0  0  0  0  0  0
    7.2647   29.4716   63.2249 H   0  0  0  0  0  0  0  0  0  0  0  0
    7.6852   31.1555   61.5950 H   0  0  0  0  0  0  0  0  0  0  0  0
    4.6193   29.3120   63.9216 H   0  0  0  0  0  0  0  0  0  0  0  0
    4.8024   31.0543   63.9360 H   0  0  0  0  0  0  0  0  0  0  0  0
    7.4361   31.4641   65.2662 H   0  0  0  0  0  0  0  0  0  0  0  0
    7.6082   33.0214   63.0647 H   0  0  0  0  0  0  0  0  0  0  0  0
  1  2  2  0  0  0  0
  1 11  1  0  0  0  0
  1 14  1  0  0  0  0
  2 12  1  0  0  0  0
  2 15  1  0  0  0  0
  3 10  1  0  0  0  0
  3 11  2  0  0  0  0
  3 12  1  0  0  0  0
  4  5  1  0  0  0  0
  4  6  1  0  0  0  0
  4 16  1  0  0  0  0
  4 17  1  0  0  0  0
  5  7  1  0  0  0  0
  5 18  1  0  0  0  0
  5 19  1  0  0  0  0
  6  8  1  0  0  0  0
  6 20  1  0  0  0  0
  6 21  1  0  0  0  0
  7  9  1  0  0  0  0
  7 22  1  0  0  0  0
  7 23  1  0  0  0  0
  8  9  1  0  0  0  0
  8 10  1  0  0  0  0
  8 24  1  0  0  0  0
  9 13  1  0  0  0  0
  9 25  1  0  0  0  0
 10 26  1  0  0  0  0
 10 27  1  0  0  0  0
 12 28  1  0  0  0  0
 13 29  1  0  0  0  0
M  END
$$$$
