
  -OEChem-12122420533D

 27 28  0     0  0  0  0  0  0999 V2000
    3.0955    1.0684   -4.1343 C   0  0  0  0  0  0  0  0  0  0  0  0
    2.7126    2.1546   -4.9253 C   0  0  0  0  0  0  0  0  0  0  0  0
    2.6570   -0.2143   -4.4692 C   0  0  0  0  0  0  0  0  0  0  0  0
    1.8931    1.9412   -6.0368 C   0  0  0  0  0  0  0  0  0  0  0  0
    1.8419   -0.4376   -5.5867 C   0  0  0  0  0  0  0  0  0  0  0  0
    1.4455    0.6575   -6.3832 C   0  0  0  0  0  0  0  0  0  0  0  0
    0.0011   -3.1990   -4.2345 C   0  0  0  0  0  0  0  0  0  0  0  0
    2.3155   -3.9426   -4.8493 C   0  0  0  0  0  0  0  0  0  0  0  0
    0.1159   -2.1566   -5.0647 C   0  0  0  0  0  0  0  0  0  0  0  0
    2.4336   -2.8925   -5.6692 C   0  0  0  0  0  0  0  0  0  0  0  0
    1.0847   -4.2237   -4.0293 C   0  0  0  0  0  0  0  0  0  0  0  0
    1.3542   -1.8579   -5.8841 C   0  0  0  0  0  0  0  0  0  0  0  0
    0.5534    0.4822   -7.5940 C   0  0  0  0  0  0  0  0  0  0  0  0
    3.7294    1.2184   -3.2639 H   0  0  0  0  0  0  0  0  0  0  0  0
    3.0461    3.1599   -4.6802 H   0  0  0  0  0  0  0  0  0  0  0  0
    2.9478   -1.0634   -3.8560 H   0  0  0  0  0  0  0  0  0  0  0  0
    1.5923    2.7887   -6.6492 H   0  0  0  0  0  0  0  0  0  0  0  0
   -0.9184   -3.3306   -3.6658 H   0  0  0  0  0  0  0  0  0  0  0  0
    3.1428   -4.6454   -4.7578 H   0  0  0  0  0  0  0  0  0  0  0  0
   -0.7043   -1.4466   -5.1560 H   0  0  0  0  0  0  0  0  0  0  0  0
    3.3561   -2.7455   -6.2288 H   0  0  0  0  0  0  0  0  0  0  0  0
    0.6994   -5.2263   -4.2698 H   0  0  0  0  0  0  0  0  0  0  0  0
    1.3513   -4.2755   -2.9625 H   0  0  0  0  0  0  0  0  0  0  0  0
    1.0751   -1.8937   -6.9450 H   0  0  0  0  0  0  0  0  0  0  0  0
    1.0330   -0.1285   -8.3679 H   0  0  0  0  0  0  0  0  0  0  0  0
   -0.3933   -0.0069   -7.3398 H   0  0  0  0  0  0  0  0  0  0  0  0
    0.3147    1.4507   -8.0413 H   0  0  0  0  0  0  0  0  0  0  0  0
  1  2  1  0  0  0  0
  1  3  2  0  0  0  0
  1 14  1  0  0  0  0
  2  4  2  0  0  0  0
  2 15  1  0  0  0  0
  3  5  1  0  0  0  0
  3 16  1  0  0  0  0
  4  6  1  0  0  0  0
  4 17  1  0  0  0  0
  5  6  2  0  0  0  0
  5 12  1  0  0  0  0
  6 13  1  0  0  0  0
  7  9  2  0  0  0  0
  7 11  1  0  0  0  0
  7 18  1  0  0  0  0
  8 10  2  0  0  0  0
  8 11  1  0  0  0  0
  8 19  1  0  0  0  0
  9 12  1  0  0  0  0
  9 20  1  0  0  0  0
 10 12  1  0  0  0  0
 10 21  1  0  0  0  0
 11 22  1  0  0  0  0
 11 23  1  0  0  0  0
 12 24  1  0  0  0  0
 13 25  1  0  0  0  0
 13 26  1  0  0  0  0
 13 27  1  0  0  0  0
M  END
$$$$
