27
0 1 C13H14
C                    -4.313486515420     1.372240408314    -1.257624408100
C                    -4.782334343719     1.589679064882     0.038574505066
C                    -3.053563096929     0.796366594993    -1.438391094552
C                    -3.983167274134     1.227460063525     1.126177154102
C                    -2.242164027326     0.428556227852    -0.355351376559
C                    -2.716042505237     0.648329720109     0.960374408519
C                     0.227281828945    -2.076046315468     0.593663380575
C                     1.269770337444     0.207229013096     0.587560125799
C                    -0.765679259289    -1.624040155161    -0.179768007344
C                     0.276254888456     0.658006408044    -0.185878400721
C                     1.346383947242    -1.206010770184     1.101429504498
C                    -0.877764183738    -0.195269026040    -0.663123519921
C                    -1.918042165566     0.286905267751     2.193533975192
H                    -4.917926335886     1.646089419040    -2.118633978789
H                    -5.759392698962     2.036333327967     0.205281127659
H                    -2.687219106298     0.626481194312    -2.449014646966
H                    -4.351437543897     1.398239466769     2.135565670408
H                     0.240095849810    -3.123401571521     0.892369649381
H                     2.070147725270     0.884898492682     0.881674967369
H                    -1.554767646178    -2.301249541621    -0.502765753831
H                     0.270434214310     1.696398878554    -0.513452492892
H                     2.316364345622    -1.649602721794     0.831892668901
H                     1.338416999123    -1.199426577992     2.203433743073
H                    -0.816947677868    -0.225985344779    -1.761071387630
H                    -1.690254115117    -0.782181174344     2.225032931151
H                    -0.960463908261     0.814272787612     2.220719078530
H                    -2.475570675019     0.544215262807     3.098351063216
