26
0 1 C11H14O
C                     3.430406656642    -5.383538293167    -3.522051783238
C                     2.396995564054    -4.511877300704    -3.171581547854
C                     4.520190119047    -4.904738530698    -4.254188986276
C                     2.469149596410    -3.169699111054    -3.555578403390
C                     4.591420589001    -3.563846749681    -4.649360603972
C                     3.554146746197    -2.675593294650    -4.293047024491
C                     6.830348411928    -3.310227453454    -7.626900769289
C                     5.459013970874    -3.025716998337    -7.002560874684
C                     7.398035250538    -4.339283502266    -6.647429037875
C                     5.761646364159    -3.090013077205    -5.488305485266
C                     3.585225630703    -1.213924049150    -4.684501087614
O                     6.891974024461    -3.974029955362    -5.354080664757
H                     3.393691368079    -6.427757782656    -3.221476672195
H                     1.544916409140    -4.868568670379    -2.598293770644
H                     5.342155000135    -5.564701179888    -4.511973859669
H                     1.667978717941    -2.488999610386    -3.275247527469
H                     6.769052561466    -3.688842301585    -8.651188158834
H                     7.447147176732    -2.405071385092    -7.630052755135
H                     5.037040776316    -2.063488956134    -7.301203520514
H                     4.742576958250    -3.809694655227    -7.268842905303
H                     7.057767546484    -5.353932087672    -6.902046304112
H                     8.491001010060    -4.342018882769    -6.596373020445
H                     6.082174017262    -2.098805883334    -5.140285784876
H                     4.501464955902    -0.719906192581    -4.341314965952
H                     3.535474865905    -1.080211154675    -5.770643683808
H                     2.737966364701    -0.677840700165    -4.248918682888
