16
0 1 C5H6N4O
C                     0.654525184013     0.953693218145     1.919916659416
C                     0.228949530925     0.956085204972     3.253620181872
C                    -0.098005635581     0.178096135448     1.042354462620
C                    -1.485313237822    -0.452902851090     2.739296546872
C                    -3.510575056686    -2.005448270490     2.597073853128
N                    -0.828681796216     0.265029468161     3.675899066230
N                    -1.166453202030    -0.528538805991     1.433610862179
N                    -3.352192285782    -2.208074902383     1.263653165308
N                    -2.571976824855    -1.151654920087     3.219874413561
O                    -4.397424525200    -2.504918176359     3.283352977139
H                     1.517595270217     1.521142091055     1.589929408036
H                     0.756920312806     1.534344152276     4.010846824782
H                     0.155644056585     0.113539457972    -0.014514330744
H                    -4.020713646089    -2.817316937241     0.815377048156
H                    -2.592882086981    -1.760864717470     0.757268728374
H                    -2.743025637508    -1.040596176085     4.212899733326
