25
0 1 C11H12N2
C                     1.848926054908    -0.963799396888    -0.149476072852
C                     0.859698084349    -0.248259614809     0.527063602806
C                     2.790803216907    -1.701759724162     0.574988642726
C                     0.825692347150    -0.283730506118     1.924234168652
C                     0.616560867897    -4.368387920763     5.084608404656
C                     0.504813849557    -3.279325822147     4.246236844535
C                     2.033017371271    -2.924892658009     5.801107585018
C                     2.769546036060    -1.746065927517     1.974758140731
C                     1.765877136927    -1.020533041280     2.653556540520
C                     3.794283459072    -2.569306861238     2.719759255461
C                     1.679897847224    -1.025770170548     4.164743035498
N                     1.573852205319    -4.137715939184     6.052139950824
N                     1.421503763858    -2.356478380655     4.715365226716
H                     1.890729075429    -0.949297554727    -1.235565015769
H                     0.121709451386     0.329318498388    -0.023023172201
H                     3.560230532543    -2.255632703902     0.041836946071
H                     0.053903842799     0.267736500641     2.457263133236
H                     0.067350309807    -5.300389498279     5.042356250270
H                    -0.104360429452    -3.084840608100     3.375465647677
H                     2.805528705233    -2.409831614566     6.359289125607
H                     4.270827079794    -1.997527276121     3.523691629329
H                     3.337475729967    -3.450012809883     3.182780731543
H                     4.582023073794    -2.912157489841     2.044198674061
H                     2.616449724323    -0.676323924818     4.611242043282
H                     0.890436813743    -0.340684621611     4.490526407865
