
  -OEChem-12122420533D

 16 16  0     0  0  0  0  0  0999 V2000
    0.6545    0.9537    1.9199 C   0  0  0  0  0  0  0  0  0  0  0  0
    0.2289    0.9561    3.2536 C   0  0  0  0  0  0  0  0  0  0  0  0
   -0.0980    0.1781    1.0424 C   0  0  0  0  0  0  0  0  0  0  0  0
   -1.4853   -0.4529    2.7393 C   0  0  0  0  0  0  0  0  0  0  0  0
   -3.5106   -2.0054    2.5971 C   0  0  0  0  0  0  0  0  0  0  0  0
   -0.8287    0.2650    3.6759 N   0  0  0  0  0  0  0  0  0  0  0  0
   -1.1665   -0.5285    1.4336 N   0  0  0  0  0  0  0  0  0  0  0  0
   -3.3522   -2.2081    1.2637 N   0  0  0  0  0  0  0  0  0  0  0  0
   -2.5720   -1.1517    3.2199 N   0  0  0  0  0  0  0  0  0  0  0  0
   -4.3974   -2.5049    3.2834 O   0  0  0  0  0  0  0  0  0  0  0  0
    1.5176    1.5211    1.5899 H   0  0  0  0  0  0  0  0  0  0  0  0
    0.7569    1.5343    4.0108 H   0  0  0  0  0  0  0  0  0  0  0  0
    0.1556    0.1135   -0.0145 H   0  0  0  0  0  0  0  0  0  0  0  0
   -4.0207   -2.8173    0.8154 H   0  0  0  0  0  0  0  0  0  0  0  0
   -2.5929   -1.7609    0.7573 H   0  0  0  0  0  0  0  0  0  0  0  0
   -2.7430   -1.0406    4.2129 H   0  0  0  0  0  0  0  0  0  0  0  0
  1  2  1  0  0  0  0
  1  3  2  0  0  0  0
  1 11  1  0  0  0  0
  2  6  2  0  0  0  0
  2 12  1  0  0  0  0
  3  7  1  0  0  0  0
  3 13  1  0  0  0  0
  4  6  1  0  0  0  0
  4  7  2  0  0  0  0
  4  9  1  0  0  0  0
  5  8  1  0  0  0  0
  5  9  1  0  0  0  0
  5 10  2  0  0  0  0
  8 14  1  0  0  0  0
  8 15  1  0  0  0  0
  9 16  1  0  0  0  0
M  END
$$$$
