
  -OEChem-12122420533D

 18 19  0     0  0  0  0  0  0999 V2000
    0.6130    0.9068    1.8545 C   0  0  0  0  0  0  0  0  0  0  0  0
   -4.7956   -2.5541    4.3084 C   0  0  0  0  0  0  0  0  0  0  0  0
    0.2510    0.9606    3.2019 C   0  0  0  0  0  0  0  0  0  0  0  0
   -0.1875    0.1091    1.0347 C   0  0  0  0  0  0  0  0  0  0  0  0
   -3.9946   -1.7572    5.1285 C   0  0  0  0  0  0  0  0  0  0  0  0
   -4.4341   -2.6071    2.9609 C   0  0  0  0  0  0  0  0  0  0  0  0
   -1.4993   -0.4448    2.8129 C   0  0  0  0  0  0  0  0  0  0  0  0
   -2.6833   -1.2025    3.3501 C   0  0  0  0  0  0  0  0  0  0  0  0
   -0.7978    0.2923    3.6895 N   0  0  0  0  0  0  0  0  0  0  0  0
   -1.2407   -0.5676    1.5007 N   0  0  0  0  0  0  0  0  0  0  0  0
   -2.9413   -1.0804    4.6625 N   0  0  0  0  0  0  0  0  0  0  0  0
   -3.3853   -1.9388    2.4733 N   0  0  0  0  0  0  0  0  0  0  0  0
    1.4673    1.4534    1.4669 H   0  0  0  0  0  0  0  0  0  0  0  0
   -5.6499   -3.1007    4.6960 H   0  0  0  0  0  0  0  0  0  0  0  0
    0.8185    1.5579    3.9150 H   0  0  0  0  0  0  0  0  0  0  0  0
    0.0203    0.0079   -0.0301 H   0  0  0  0  0  0  0  0  0  0  0  0
   -4.2019   -1.6566    6.1935 H   0  0  0  0  0  0  0  0  0  0  0  0
   -5.0020   -3.2037    2.2477 H   0  0  0  0  0  0  0  0  0  0  0  0
  1  3  1  0  0  0  0
  1  4  2  0  0  0  0
  1 13  1  0  0  0  0
  2  5  1  0  0  0  0
  2  6  2  0  0  0  0
  2 14  1  0  0  0  0
  3  9  2  0  0  0  0
  3 15  1  0  0  0  0
  4 10  1  0  0  0  0
  4 16  1  0  0  0  0
  5 11  2  0  0  0  0
  5 17  1  0  0  0  0
  6 12  1  0  0  0  0
  6 18  1  0  0  0  0
  7  8  1  0  0  0  0
  7  9  1  0  0  0  0
  7 10  2  0  0  0  0
  8 11  1  0  0  0  0
  8 12  2  0  0  0  0
M  END
$$$$
