18
0 1 C8H6N4
C                     0.613036314836     0.906806307493     1.854533348927
C                    -4.795603922661    -2.554080818897     4.308444372079
C                     0.251011489766     0.960588661788     3.201880827326
C                    -0.187485511909     0.109143598758     1.034679694406
C                    -3.994551479343    -1.757169652928     5.128534320100
C                    -4.434093304378    -2.607080218466     2.960942146389
C                    -1.499250521984    -0.444797200333     2.812870843235
C                    -2.683319054380    -1.202482793346     3.350094172226
N                    -0.797826621376     0.292298234415     3.689543720686
N                    -1.240713560772    -0.567634852241     1.500696567505
N                    -2.941334156902    -1.080394271157     4.662490194374
N                    -3.385254314802    -1.938806968186     2.473255672892
H                     1.467296108492     1.453419288118     1.466940808329
H                    -5.649869950024    -3.100705346168     4.696006982414
H                     0.818488557238     1.557868905097     3.914960321675
H                     0.020278584015     0.007916575740    -0.030137695210
H                    -4.201874331433    -1.656587008999     6.193502250049
H                    -5.002016235400    -3.203724501895     2.247690320189
