
  -OEChem-12102412493D

 26 27  0     1  0  0  0  0  0999 V2000
    4.8807  -11.7957    2.4972 C   0  0  0  0  0  0  0  0  0  0  0  0
    5.0368  -12.4103    3.7395 C   0  0  0  0  0  0  0  0  0  0  0  0
    3.5963  -11.6245    1.9704 C   0  0  0  0  0  0  0  0  0  0  0  0
    3.9080  -12.8552    4.4351 C   0  0  0  0  0  0  0  0  0  0  0  0
    2.4604  -12.0572    2.6644 C   0  0  0  0  0  0  0  0  0  0  0  0
    2.6166  -12.6954    3.9169 C   0  0  0  0  0  0  0  0  0  0  0  0
   -0.5642  -10.8538    0.7010 C   0  0  0  0  0  0  0  0  0  0  0  0
    0.9266  -11.2345    0.7068 C   0  0  0  0  0  0  0  0  0  0  0  0
   -0.8748  -10.6222    2.2014 C   0  0  0  0  0  0  0  0  0  0  0  0
    1.0737  -11.8882    2.0827 C   0  0  2  0  0  0  0  0  0  0  0  0
    1.4282  -13.2068    4.6987 C   0  0  0  0  0  0  0  0  0  0  0  0
    0.2862  -11.0358    2.9396 O   0  0  0  0  0  0  0  0  0  0  0  0
    5.7478  -11.4515    1.9393 H   0  0  0  0  0  0  0  0  0  0  0  0
    6.0278  -12.5495    4.1645 H   0  0  0  0  0  0  0  0  0  0  0  0
    3.4892  -11.1499    1.0003 H   0  0  0  0  0  0  0  0  0  0  0  0
    4.0321  -13.3412    5.4004 H   0  0  0  0  0  0  0  0  0  0  0  0
   -0.7668   -9.9693    0.0918 H   0  0  0  0  0  0  0  0  0  0  0  0
   -1.1692  -11.6748    0.3043 H   0  0  0  0  0  0  0  0  0  0  0  0
    1.2059  -11.9003   -0.1145 H   0  0  0  0  0  0  0  0  0  0  0  0
    1.5451  -10.3340    0.6552 H   0  0  0  0  0  0  0  0  0  0  0  0
   -1.0528   -9.5698    2.4424 H   0  0  0  0  0  0  0  0  0  0  0  0
   -1.7481  -11.2041    2.5252 H   0  0  0  0  0  0  0  0  0  0  0  0
    0.5927  -12.8818    2.0434 H   0  0  0  0  0  0  0  0  0  0  0  0
    0.7531  -12.3909    4.9676 H   0  0  0  0  0  0  0  0  0  0  0  0
    0.8410  -13.9221    4.1100 H   0  0  0  0  0  0  0  0  0  0  0  0
    1.7527  -13.7144    5.6111 H   0  0  0  0  0  0  0  0  0  0  0  0
  1  2  1  0  0  0  0
  1  3  2  0  0  0  0
  1 13  1  0  0  0  0
  2  4  2  0  0  0  0
  2 14  1  0  0  0  0
  3  5  1  0  0  0  0
  3 15  1  0  0  0  0
  4  6  1  0  0  0  0
  4 16  1  0  0  0  0
  5  6  2  0  0  0  0
  5 10  1  0  0  0  0
  6 11  1  0  0  0  0
  7  8  1  0  0  0  0
  7  9  1  0  0  0  0
  7 17  1  0  0  0  0
  7 18  1  0  0  0  0
  8 10  1  0  0  0  0
  8 19  1  0  0  0  0
  8 20  1  0  0  0  0
  9 12  1  0  0  0  0
  9 21  1  0  0  0  0
  9 22  1  0  0  0  0
 10 12  1  0  0  0  0
 10 23  1  0  0  0  0
 11 24  1  0  0  0  0
 11 25  1  0  0  0  0
 11 26  1  0  0  0  0
M  END
$$$$
