29
0 1 C10H16N2O
C                    -5.092634440702     1.362323950184     1.475343544464
C                    -4.457400179065     2.150457653759     0.542969500277
C                    -2.977519024688     1.085357159627     1.831524909019
C                    -0.183817662951    -1.046387973030     0.076343194951
C                     1.043942348800    -1.544047314948     0.853801716695
C                    -1.488710629599    -1.416158994654     0.797851688500
C                     1.028205745703    -1.062484077958     2.312529588880
C                    -1.518406715843    -0.920192146668     2.256654259340
C                    -0.278140648488    -1.449315667018     3.001971430450
C                    -1.658166285467     0.614502627844     2.359819240431
N                    -4.168828950328     0.706269052441     2.266035153090
N                    -3.104592147488     1.960723154580     0.781118507129
O                    -0.205775008749    -0.981040292043     4.356312229110
H                    -6.157082506959     1.231699037571     1.622525020263
H                    -4.822533227026     2.805259576287    -0.235103988887
H                    -0.117865714507     0.042620239470    -0.048709539843
H                    -0.187093756729    -1.469563542880    -0.934827584908
H                     1.055750816546    -2.642463192274     0.837041388533
H                     1.966936838056    -1.216224969871     0.362088723219
H                    -2.357113165761    -1.022989344306     0.258038280485
H                    -1.595070983775    -2.509054733448     0.796207900039
H                     1.864062327628    -1.493880717406     2.873181942534
H                     1.150040903135     0.026352210158     2.357128898200
H                    -2.411495395343    -1.339876438120     2.737436869984
H                    -0.346589217970    -2.549910622013     3.003744258774
H                    -0.850614254809     1.120382843565     1.821443077719
H                    -1.559955980016     0.907734145647     3.409214982642
H                    -2.343411635338     2.395232763638     0.276731280240
H                    -1.024104579986    -1.245843092437     4.806809821608
