14   
torsion grid (-165,)
C        0.1385833954   -1.1393397461   -1.6424957413
C       -0.0738822754   -0.7329736960   -0.1814888782
C       -0.0106327012    1.0559005980    1.5681671115
C       -0.0191937708    0.7787138590    0.0643478424
Cl      -0.3710088094    2.7579924917    2.0471635514
Cl      -1.4651371260    1.5466756658   -0.7448495480
H        1.1071380211   -0.7857605812   -2.0130330668
H        0.1193945805   -2.2290559722   -1.7414452168
H       -0.6420209455   -0.7250656271   -2.2853522799
H       -1.0355070482   -1.1073184282    0.1847043415
H        0.7048886062   -1.1984921046    0.4391506198
H        0.9749413889    0.8099129254    1.9690938283
H       -0.7632606616    0.4416719467    2.0651980248
H        0.8479492110    1.2372174608   -0.4151146242
14   
torsion grid (-150,)
C        0.1179412993   -1.1540870238   -1.6373508980
C       -0.1108691231   -0.7210772835   -0.1869804100
C        0.0302514078    1.0680497812    1.5637953545
C        0.0123051039    0.7875729962    0.0490624925
Cl      -0.6474956488    2.6456267437    2.1137645079
Cl      -1.3733833355    1.6121129411   -0.8063424958
H        1.1121480815   -0.8534611350   -1.9863421216
H        0.0468428989   -2.2425470671   -1.7261223757
H       -0.6241598634   -0.7085690962   -2.3044521408
H       -1.0985476065   -1.0419683871    0.1604983889
H        0.6277949427   -1.2179782433    0.4585548503
H        1.0608138899    1.0166965219    1.9201606476
H       -0.5593229282    0.3105753514    2.0822610679
H        0.9063751598    1.1983409503   -0.4233942964
14   
torsion grid (-135,)
C        0.0610548617   -1.1486078925   -1.6213951910
C       -0.1193186434   -0.6896411497   -0.1725872968
C        0.1503275792    1.1056801693    1.5792853688
C        0.1113205287    0.8064216550    0.0561151553
Cl      -0.7706216000    2.5317727706    2.1845286154
Cl      -1.1638835772    1.7428791610   -0.8491165888
H        1.0644765905   -0.9064604250   -1.9894357229
H       -0.0705250135   -2.2325033341   -1.6962873628
H       -0.6656690259   -0.6704097441   -2.2825040887
H       -1.1214294846   -0.9419933302    0.1917512313
H        0.5936677107   -1.2296002755    0.4668789299
H        1.1866565944    1.2479736969    1.8885300236
H       -0.2614813351    0.2557692246    2.1243144639
H        1.0477311508    1.1296930270   -0.4018313253
14   
torsion grid (-120,)
C        0.0412838528   -1.1608986007   -1.6349946233
C       -0.1585998738   -0.7148088174   -0.1849893232
C        0.0746485674    1.0906377602    1.5905240067
C        0.0873396013    0.7749653309    0.0652169130
Cl      -1.1520195945    2.2644914015    2.1970543502
Cl      -1.0676847234    1.7768121469   -0.9170471998
H        1.0501633822   -0.9166756934   -1.9868463458
H       -0.0906992347   -2.2439260833   -1.7211180554
H       -0.6747349198   -0.6762201597   -2.3029116537
H       -1.1687060522   -0.9652338676    0.1602630726
H        0.5407644064   -1.2645080282    0.4598478612
H        1.0426949832    1.4955242054    1.8858407208
H       -0.1030450237    0.1707727575    2.1478535269
H        1.0671058249    1.0529144983   -0.3289562246
14   
torsion grid (-105,)
C        0.0076550101   -1.1658032927   -1.6285949075
C       -0.1888763303   -0.7092748280   -0.1813619863
C        0.1082621527    1.1290005206    1.5736633573
C        0.1252665066    0.7680460546    0.0656173986
Cl      -1.3209407289    2.0524358263    2.1760523964
Cl      -0.9000071434    1.8533308069   -0.9620997350
H        1.0273760923   -0.9579430299   -1.9727935550
H       -0.1624369804   -2.2435089071   -1.7141846034
H       -0.6848625077   -0.6574630978   -2.3038853373
H       -1.2130072318   -0.9179261203    0.1507186776
H        0.4795222400   -1.2839423448    0.4731763654
H        0.9689198237    1.7534737447    1.8128561584
H        0.1591219133    0.2156055709    2.1668922119
H        1.1412905782    0.9631496646   -0.2888752795
14   
torsion grid (-90,)
C       -0.0170969511   -1.1420689436   -1.6279218199
C       -0.2338200685   -0.7298088288   -0.1702886560
C        0.0760823599    1.0685188054    1.6299186764
C        0.1181414050    0.7277672327    0.1313740078
Cl      -1.5179063144    1.6493771667    2.2527690980
Cl      -0.8283419990    1.8967995434   -0.8810475476
H        1.0156399456   -0.9531078359   -1.9430892368
H       -0.2168230189   -2.2104930552   -1.7552688874
H       -0.6794536447   -0.5902632441   -2.2995157648
H       -1.2704460208   -0.9209202069    0.1308485115
H        0.4033946735   -1.3425825493    0.4804157549
H        0.7757685404    1.8755422853    1.8485909690
H        0.3505499754    0.1880969557    2.2127585157
H        1.1547753181    0.8930426321   -0.1808614609
14   
torsion grid (-75,)
C       -0.0314709847   -1.1390064711   -1.6186136860
C       -0.2590663291   -0.7167990648   -0.1653639491
C        0.1173043185    1.0739310663    1.6280213567
C        0.1664494141    0.7181135422    0.1438836823
Cl      -1.5505982803    1.3364018565    2.2769807970
Cl      -0.7315783020    1.9368596449   -0.8608416370
H        1.0186128674   -1.0156308103   -1.9078105227
H       -0.2955807030   -2.1921716820   -1.7551091392
H       -0.6411176762   -0.5448375425   -2.3040703879
H       -1.3107053167   -0.8472600186    0.1113699332
H        0.3264053422   -1.3642207268    0.5006931364
H        0.6557411449    2.0035570906    1.8145017788
H        0.5694833347    0.2687867520    2.2104592377
H        1.2129112322    0.8427086435   -0.1567537840
14   
torsion grid (-60,)
C       -0.0238537421   -1.1501682202   -1.6060286144
C       -0.3064166447   -0.6845115345   -0.1756333498
C        0.1315328748    1.1198716313    1.5963639635
C        0.1933254604    0.7262819530    0.1270568534
Cl      -1.5365104158    1.0770380251    2.2965323110
Cl      -0.6750126203    1.9668718706   -0.8921715151
H        1.0480234199   -1.1140594851   -1.8323225176
H       -0.3606976596   -2.1821400071   -1.7441859206
H       -0.5438960355   -0.5238373660   -2.3355933122
H       -1.3770917690   -0.7365831414    0.0413029022
H        0.1922422757   -1.3556025257    0.5368402850
H        0.5037710182    2.1337561282    1.7431306918
H        0.7356993146    0.4213794038    2.1803355936
H        1.2434605303    0.8176531411   -0.1710977164
14   
torsion grid (-45,)
C       -0.0330238948   -1.1612468394   -1.5991109709
C       -0.3539601626   -0.6646064105   -0.1871454803
C        0.1388280697    1.1462542661    1.5810366878
C        0.2073802259    0.7212613746    0.1187700829
Cl      -1.4475407463    0.8027114774    2.3822852929
Cl      -0.6373733546    1.9784292164   -0.9165262295
H        1.0485635565   -1.1999312385   -1.7723986157
H       -0.4316725166   -2.1695066757   -1.7473311769
H       -0.4737118328   -0.5085482820   -2.3574214468
H       -1.4331203483   -0.6535078503   -0.0175299866
H        0.0717484360   -1.3543963371    0.5544230217
H        0.3310514510    2.2125392711    1.6923199122
H        0.8853229728    0.5826162858    2.1466401167
H        1.2577543088    0.7862662747   -0.1814926624
14   
torsion grid (-30,)
C       -0.0383125288   -1.1655001454   -1.5996692018
C       -0.3883995368   -0.6510540532   -0.2009047305
C        0.1322839813    1.1595313172    1.5843199435
C        0.2313607139    0.7045432992    0.1249949914
Cl      -1.3223902167    0.5537980084    2.4793720245
Cl      -0.5344035687    1.9887782723   -0.9505443209
H        1.0458889362   -1.2596193613   -1.7302539244
H       -0.4811042785   -2.1529597823   -1.7619816024
H       -0.4153199013   -0.4939831252   -2.3755602050
H       -1.4709167287   -0.5841161068   -0.0718257871
H       -0.0292127111   -1.3618019752    0.5552637823
H        0.1314199528    2.2447124786    1.6645819159
H        0.9876758625    0.7605782151    2.1346494163
H        1.2885875553    0.7255251994   -0.1523725142
14   
torsion grid (-15,)
C       -0.0478215007   -1.1675153281   -1.5958751910
C       -0.4031348706   -0.6358271002   -0.2048641356
C        0.1517722809    1.1705481801    1.6003366906
C        0.2969503097    0.6725642334    0.1483090320
Cl      -1.1596905599    0.3760538342    2.5712694831
Cl      -0.3017949886    1.9994857091   -0.9847856625
H        1.0330289179   -1.3166939753   -1.7009603440
H       -0.5358166105   -2.1320714324   -1.7663008561
H       -0.3718509300   -0.4802830503   -2.3814996008
H       -1.4828347564   -0.5000614257   -0.1046278494
H       -0.1123006464   -1.3722777611    0.5546916510
H       -0.0397619899    2.2402035990    1.6361848338
H        1.0717979412    0.9565605670    2.1467903836
H        1.3631628733    0.6049004650   -0.0788565217
14   
torsion grid (0,)
C       -0.0694502380   -1.1640538490   -1.6041955351
C       -0.4260369232   -0.6257792576   -0.2160942378
C        0.1271745810    1.1942758944    1.5932628015
C        0.3209014471    0.6518433532    0.1552090733
Cl      -0.9794343580    0.2199043496    2.6559468930
Cl      -0.1155277139    1.9990960147   -1.0195344200
H        1.0074779137   -1.3477766892   -1.6941046787
H       -0.5859061346   -2.1121357912   -1.7831117068
H       -0.3592946856   -0.4659465396   -2.3934715155
H       -1.5029434370   -0.4534753917   -0.1315975881
H       -0.1715688174   -1.3747890545    0.5421828390
H       -0.2931446179    2.1965326214    1.5779903930
H        1.0835749525    1.2195238740    2.1154794182
H        1.3894248429    0.5042707115   -0.0146186543
14   
torsion grid (15,)
C       -0.0926376688   -1.1414398741   -1.5955459608
C       -0.4496905339   -0.6099587962   -0.2048156383
C        0.1132932358    1.1971293857    1.6170558555
C        0.3449106753    0.6291150938    0.1967318978
Cl      -0.7482123744    0.0803726910    2.7648786217
Cl       0.0626496577    2.0081841045   -0.9798229995
H        0.9797042128   -1.3547064262   -1.6745783278
H       -0.6336255437   -2.0721890674   -1.7919677492
H       -0.3519058091   -0.4261725181   -2.3801206976
H       -1.5219700614   -0.3987226202   -0.1356499527
H       -0.2347340711   -1.3775474543    0.5453000504
H       -0.5128191223    2.0855032642    1.5736649853
H        1.0611990480    1.4533557361    2.0886734573
H        1.4081564968    0.4076075508    0.0788063583
14   
torsion grid (30,)
C       -0.1001530192   -1.1501619863   -1.6038213739
C       -0.4621477001   -0.5989462590   -0.2220019263
C        0.0998743431    1.2089240902    1.5834768341
C        0.3758414486    0.6061521130    0.1936015903
Cl      -0.4875808479    0.0081162230    2.8158558161
Cl       0.2122500312    1.9935102739   -0.9910887558
H        0.9624965980   -1.4135783476   -1.6575364158
H       -0.6794835335   -2.0550191247   -1.8113801338
H       -0.3073098389   -0.4254151717   -2.3952302358
H       -1.5262739194   -0.3405579606   -0.1766471578
H       -0.2949259316   -1.3718273011    0.5337277864
H       -0.6926269934    1.9529944072    1.5196911952
H        0.9965882045    1.6738371142    1.9912399022
H        1.4312820469    0.3298292483    0.1293626970
14   
torsion grid (45,)
C       -0.1040764587   -1.1452226837   -1.6009837278
C       -0.4919334853   -0.5673018119   -0.2371705879
C        0.0746354968    1.2038588839    1.5782935175
C        0.3906949759    0.5930666229    0.2099836109
Cl      -0.2146529247   -0.0475309537    2.8650653008
Cl       0.3129986893    1.9948922158   -0.9672447702
H        0.9433899726   -1.4677708207   -1.6084745820
H       -0.7235234116   -2.0173015362   -1.8315314006
H       -0.2366894830   -0.4131428053   -2.4017398138
H       -1.5402662859   -0.2458363359   -0.2398229083
H       -0.4022270953   -1.3440997947    0.5277691522
H       -0.8420115346    1.7916232759    1.5295907632
H        0.8930648961    1.8347459593    1.9226267296
H        1.4368256456    0.2771909015    0.1872432547
14   
torsion grid (60,)
C       -0.0827841165   -1.1483926833   -1.5952406531
C       -0.5143012240   -0.5271606667   -0.2641866702
C        0.0621983000    1.1645268557    1.5937164971
C        0.4114034755    0.5802062450    0.2279707628
Cl       0.1040969557   -0.1096799338    2.8901820639
Cl       0.3893065488    2.0068858050   -0.9252361203
H        0.9329643643   -1.5542707951   -1.5283880653
H       -0.7529656292   -1.9699711379   -1.8658897013
H       -0.1009276695   -0.4146307050   -2.4054583019
H       -1.5336905627   -0.1302431864   -0.3381628541
H       -0.5289853827   -1.2983438165    0.5128159887
H       -0.9458040852    1.5807981738    1.5947267503
H        0.7774311178    1.9321071219    1.8858097255
H        1.4485919248    0.2370724979    0.2292814156
14   
torsion grid (75,)
C       -0.0887936523   -1.1471767667   -1.5899536260
C       -0.5405170599   -0.4866843514   -0.2851429532
C        0.0347548676    1.1361442321    1.6065511358
C        0.4234691542    0.5691284172    0.2452711531
Cl       0.4017538540   -0.0722047882    2.9156692776
Cl       0.4678483412    2.0039295906   -0.9035260944
H        0.8929504874   -1.6193201680   -1.4719489217
H       -0.7986004276   -1.9239644967   -1.8902361126
H       -0.0188216884   -0.4188426191   -2.4023449104
H       -1.5284442487   -0.0283953315   -0.4077658186
H       -0.6369088691   -1.2483931155    0.4980194711
H       -1.0306511168    1.3629439646    1.6580635639
H        0.6155798379    2.0254851137    1.8448451704
H        1.4492720385    0.1974122512    0.2731447418
14   
torsion grid (90,)
C       -0.1029677928   -1.1457407363   -1.5922473980
C       -0.5689857953   -0.4556771168   -0.3084875528
C        0.0018569063    1.1077934555    1.6214658000
C        0.4244867719    0.5514577101    0.2612390238
Cl       0.6698249572    0.0642585199    2.9531263688
Cl       0.5557666514    1.9863896835   -0.8883670881
H        0.8444038706   -1.6726753804   -1.4331827621
H       -0.8432136465   -1.8812895360   -1.9215744242
H        0.0419305035   -0.4243523404   -2.4008862796
H       -1.5262667426    0.0523061364   -0.4693457973
H       -0.7354087940   -1.2086401552    0.4736673748
H       -1.0826736746    1.1310826384    1.7316832362
H        0.4125195379    2.1006979556    1.7919305014
H        1.4353671196    0.1464664287    0.3127345855
14   
torsion grid (105,)
C       -0.1169741449   -1.1382942031   -1.5989521334
C       -0.5793397745   -0.4426235907   -0.3170657504
C       -0.0015846969    1.0720322373    1.6487682082
C        0.4474361938    0.5080782265    0.2920277238
Cl       0.9018103232    0.2742950254    3.0088397282
Cl       0.7224018288    1.9212957590   -0.8561380890
H        0.8061187763   -1.7033147238   -1.4281355857
H       -0.8795003822   -1.8404971074   -1.9495735673
H        0.0717221324   -0.4152172722   -2.3967568915
H       -1.5094026587    0.1095585762   -0.4926918472
H       -0.7980536088   -1.1968594026    0.4516398213
H       -1.0639387575    0.9000800491    1.8242623058
H        0.2144614130    2.1343432992    1.7341708585
H        1.4264582529    0.0378745970    0.3797367493
14   
torsion grid (120,)
C       -0.1284787824   -1.1030394583   -1.6327453528
C       -0.5951669094   -0.4220143934   -0.3446843063
C       -0.0281900675    1.0465208399    1.6581372533
C        0.4518533693    0.4769355779    0.3110357110
Cl       1.0569297104    0.5452854440    3.0240920007
Cl       0.8888239025    1.8633718162   -0.8103218441
H        0.7732982466   -1.7000164556   -1.4565813285
H       -0.9057179255   -1.7730890819   -2.0128479571
H        0.0986746644   -0.3696185954   -2.4105640273
H       -1.5048957772    0.1619041039   -0.5273105684
H       -0.8532269822   -1.1866666689    0.4007226920
H       -1.0231445111    0.6756964400    1.9069521283
H       -0.0401104647    2.1339956366    1.6579794667
H        1.3882167758   -0.0645728052    0.4437074581
14   
torsion grid (135,)
C       -0.1397242521   -1.0802338089   -1.6502245652
C       -0.6094039748   -0.4036993967   -0.3604909108
C       -0.0370642030    1.0369568735    1.6561799861
C        0.4585749958    0.4471776325    0.3287536152
Cl       1.1871453351    0.8671184725    2.9825113972
Cl       1.0374787552    1.7962359181   -0.7632609347
H        0.7410555717   -1.7057686219   -1.4671176875
H       -0.9299110762   -1.7212224639   -2.0530469250
H        0.1229856532   -0.3432602226   -2.4131757814
H       -1.4963891347    0.2116596643   -0.5538014839
H       -0.9071238527   -1.1706941945    0.3666462445
H       -0.9212974446    0.4993062440    2.0018078867
H       -0.2733292460    2.0957414683    1.5688307827
H        1.3483240626   -0.1587974045    0.5032796178
14   
torsion grid (150,)
C        0.1729641262   -1.1036464079   -1.6581690635
C        0.0556314608   -0.7433629368   -0.1749318413
C       -0.1462514523    1.0673913332    1.5880319466
C       -0.1124597625    0.7540665935    0.0936774407
Cl       0.5114486649    2.7121382368    1.9637310079
Cl      -1.6198099794    1.4107765665   -0.7006186595
H        1.0027726243   -0.5646944409   -2.1287764960
H        0.3582088976   -2.1757888374   -1.7752803763
H       -0.7418838392   -0.8545634690   -2.2013926830
H       -0.7751814573   -1.2922747999    0.2845601135
H        0.9696450377   -1.0531495752    0.3482139258
H        0.4923367158    0.3647818035    2.1267540934
H       -1.1575474592    1.0166334317    1.9899165367
H        0.7070812532    1.3001294210   -0.3769662212
14   
torsion grid (165,)
C        0.1518243388   -1.1237622731   -1.6586879759
C        0.0170958375   -0.7528998456   -0.1791065155
C       -0.1138288676    1.0582431526    1.5723165381
C       -0.0784267785    0.7528408282    0.0814381870
Cl       0.2074605426    2.8001859191    1.9372244763
Cl      -1.5594502829    1.4551342595   -0.7206016442
H        1.0244356519   -0.6367571411   -2.1079494986
H        0.2760893849   -2.2053560779   -1.7693020553
H       -0.7321864243   -0.8222962034   -2.2257650211
H       -0.8553483694   -1.2510865068    0.2595927940
H        0.8984291211   -1.1150358530    0.3664537937
H        0.6715295373    0.4927242358    2.0782862065
H       -1.0814789086    0.8061003286    2.0070025922
H        0.7653015385    1.2687391348   -0.3818459946
14   
torsion grid (180,)
C        0.1486410177   -1.1282775095   -1.6535917110
C       -0.0234531749   -0.7477129769   -0.1801526224
C       -0.0482426642    1.0493645697    1.5735320370
C       -0.0358559618    0.7618105868    0.0786049915
Cl      -0.0634172798    2.8096419625    1.9778897376
Cl      -1.5051277153    1.5015042645   -0.7151389457
H        1.0777232098   -0.7143949566   -2.0609017081
H        0.1895106629   -2.2163631429   -1.7629459262
H       -0.6816947921   -0.7558013414   -2.2584304188
H       -0.9458040197   -1.1822274803    0.2207034028
H        0.8066645394   -1.1719481212    0.4011228110
H        0.8528452757    0.6309566357    2.0273930172
H       -0.9292473850    0.6101765987    2.0439351401
H        0.8189973275    1.2507607068   -0.3935289060
