44
0 1 C17H20N4O3
C                     0.994203363487     5.679207037157    -0.579345872003
C                     1.733731690462     3.395165237738    -0.113388631883
C                     1.695702915270     4.730219638486     0.228203962569
C                     2.431891292653     2.426285903673     0.654215244921
C                     3.121094083711     2.857447180973     1.779009722473
C                     2.377385103310     5.209746680946     1.425727428808
C                    -2.211096705343    -0.306396605413    -0.383791111436
C                     2.529504135866     0.996027220370     0.218490856658
C                    -1.598282597309    -2.080270160337     1.830048329973
C                    -0.628232310495    -0.938138461504     1.547042415626
C                     0.005569701270    -1.399295820901    -0.888044498826
C                    -3.025800645379    -1.594846533261     1.620389070537
C                     1.476396485403    -0.986911957704    -0.739033768537
C                     0.014311904585     0.855986789942    -0.125823375566
C                    -0.755958734313    -0.463376400529     0.089157612699
C                     3.959853567769     1.989069849521     2.672944868546
C                    -4.592838164788    -0.727359468382    -0.079258686210
N                     0.411897438213     6.427973210699    -1.256681371976
N                     3.055493694146     4.175860858191     2.111617835115
N                    -3.205266751833    -0.913282685120     0.336270405240
N                     1.409026955880     0.417894746419    -0.301596073802
O                     2.412769749318     6.355595114128     1.859512239716
O                    -2.444126076143     0.320314643400    -1.421993205152
O                     3.596520447297     0.373581960100     0.307665762868
H                     1.225742698265     3.081366829592    -1.019952814344
H                    -1.394482784833    -2.929955862603     1.169183491848
H                    -1.492269208755    -2.439952825906     2.858541027310
H                    -0.855815373568    -0.103061606323     2.222241685410
H                     0.404083443475    -1.236847265068     1.756407680079
H                    -0.348465225267    -1.207493963945    -1.903790396679
H                    -0.146996665950    -2.458673723884    -0.668325157273
H                    -3.724129827699    -2.438864255466     1.650455707831
H                    -3.314948899530    -0.913923481680     2.435627236134
H                     2.011236606616    -1.575163342402     0.012553491048
H                     2.036443904837    -1.073087789115    -1.674297152045
H                    -0.367069450253     1.352169822694    -1.021918554220
H                    -0.078335340770     1.534648535008     0.724127846657
H                     4.950869273574     1.852730431587     2.230605214805
H                     3.528281855332     0.993837098773     2.776403860495
H                     4.069475320471     2.443014126654     3.662514915130
H                    -5.081357055205    -1.701103973054    -0.198140674966
H                    -4.611194935927    -0.191305546941    -1.026050094709
H                    -5.143329204725    -0.150581571671     0.674782135264
H                     3.543831844087     4.501922022134     2.941683757827
