
  -OEChem-12102412483D

 39 41  0     1  0  0  0  0  0999 V2000
   -1.0337   -1.7504    0.0422 C   0  0  0  0  0  0  0  0  0  0  0  0
   -1.7096   -0.6596    0.5830 C   0  0  0  0  0  0  0  0  0  0  0  0
    2.2459   -2.3237    3.1284 C   0  0  0  0  0  0  0  0  0  0  0  0
    0.1162   -1.5427   -0.7186 C   0  0  0  0  0  0  0  0  0  0  0  0
    2.1713   -0.9520    2.9015 C   0  0  0  0  0  0  0  0  0  0  0  0
    2.9588   -2.6801    0.8694 C   0  0  0  0  0  0  0  0  0  0  0  0
   -1.2607    0.6534    0.3715 C   0  0  0  0  0  0  0  0  0  0  0  0
    2.6484   -3.2147    2.1208 C   0  0  0  0  0  0  0  0  0  0  0  0
    0.6117   -0.2500   -0.9147 C   0  0  0  0  0  0  0  0  0  0  0  0
   -0.0879    0.8527   -0.3857 C   0  0  0  0  0  0  0  0  0  0  0  0
    2.4988   -0.4224    1.6486 C   0  0  0  0  0  0  0  0  0  0  0  0
    2.8814   -1.3033    0.6278 C   0  0  0  0  0  0  0  0  0  0  0  0
   -2.0695    1.7479    1.0231 C   0  0  0  0  0  0  0  0  0  0  0  0
    1.9341    1.3005   -2.2339 C   0  0  0  0  0  0  0  0  0  0  0  0
    1.6268    2.3760   -1.2100 C   0  0  0  0  0  0  0  0  0  0  0  0
    2.7419   -4.6992    2.3871 C   0  0  0  0  0  0  0  0  0  0  0  0
    1.8154   -0.0322   -1.6307 N   0  0  1  0  0  0  0  0  0  0  0  0
   -3.0282    1.5013    1.7282 O   0  0  0  0  0  0  0  0  0  0  0  0
    4.2828    0.3280   -1.0145 O   0  0  0  0  0  0  0  0  0  0  0  0
    3.5356   -1.9513   -1.8213 O   0  0  0  0  0  0  0  0  0  0  0  0
    0.3290    2.1458   -0.6058 O   0  0  0  0  0  0  0  0  0  0  0  0
    2.4269    0.9158    1.3846 O   0  0  0  0  0  0  0  0  0  0  0  0
   -1.6930    3.0300    0.8136 O   0  0  0  0  0  0  0  0  0  0  0  0
    3.2837   -0.7448   -1.0331 S   0  0  0  0  0  0  0  0  0  0  0  0
   -1.4030   -2.7587    0.2021 H   0  0  0  0  0  0  0  0  0  0  0  0
   -2.6072   -0.7885    1.1781 H   0  0  0  0  0  0  0  0  0  0  0  0
    1.9817   -2.7088    4.1107 H   0  0  0  0  0  0  0  0  0  0  0  0
    0.6514   -2.3749   -1.1655 H   0  0  0  0  0  0  0  0  0  0  0  0
    1.8505   -0.2828    3.6978 H   0  0  0  0  0  0  0  0  0  0  0  0
    3.2540   -3.3267    0.0494 H   0  0  0  0  0  0  0  0  0  0  0  0
    1.2296    1.3380   -3.0707 H   0  0  0  0  0  0  0  0  0  0  0  0
    2.9420    1.4412   -2.6232 H   0  0  0  0  0  0  0  0  0  0  0  0
    2.3831    2.3765   -0.4253 H   0  0  0  0  0  0  0  0  0  0  0  0
    1.5551    3.3643   -1.6688 H   0  0  0  0  0  0  0  0  0  0  0  0
    1.8204   -5.0796    2.8402 H   0  0  0  0  0  0  0  0  0  0  0  0
    2.9196   -5.2580    1.4648 H   0  0  0  0  0  0  0  0  0  0  0  0
    3.5633   -4.9249    3.0764 H   0  0  0  0  0  0  0  0  0  0  0  0
    2.0445    1.3714    2.1522 H   0  0  0  0  0  0  0  0  0  0  0  0
   -0.9086    3.0515    0.2261 H   0  0  0  0  0  0  0  0  0  0  0  0
  1  2  1  0  0  0  0
  1  4  2  0  0  0  0
  1 25  1  0  0  0  0
  2  7  2  0  0  0  0
  2 26  1  0  0  0  0
  3  5  2  0  0  0  0
  3  8  1  0  0  0  0
  3 27  1  0  0  0  0
  4  9  1  0  0  0  0
  4 28  1  0  0  0  0
  5 11  1  0  0  0  0
  5 29  1  0  0  0  0
  6  8  2  0  0  0  0
  6 12  1  0  0  0  0
  6 30  1  0  0  0  0
  7 10  1  0  0  0  0
  7 13  1  0  0  0  0
  8 16  1  0  0  0  0
  9 10  2  0  0  0  0
  9 17  1  0  0  0  0
 10 21  1  0  0  0  0
 11 12  2  0  0  0  0
 11 22  1  0  0  0  0
 12 24  1  0  0  0  0
 13 18  2  0  0  0  0
 13 23  1  0  0  0  0
 14 15  1  0  0  0  0
 14 17  1  0  0  0  0
 14 31  1  0  0  0  0
 14 32  1  0  0  0  0
 15 21  1  0  0  0  0
 15 33  1  0  0  0  0
 15 34  1  0  0  0  0
 16 35  1  0  0  0  0
 16 36  1  0  0  0  0
 16 37  1  0  0  0  0
 17 24  1  0  0  0  0
 19 24  2  0  0  0  0
 20 24  2  0  0  0  0
 22 38  1  0  0  0  0
 23 39  1  0  0  0  0
M  END
$$$$
