62
1 1 C22ClH35NO2S
C                    -0.498037158571     4.582545281741     3.262313976056
C                     0.742298188665     4.010823292271     3.950719037761
O                     1.434417513460     3.135663157837     3.018856401013
C                     1.374206089981     1.753512937859     3.300798441620
H                     2.314231597418     1.328242371308     2.930112297970
C                     1.264622787295     1.566423202877     4.819105994946
S                     0.147247760536     2.899597786252     5.350991910296
C                     0.182948272420     1.150833859310     2.532542099898
N                     0.227082916524    -0.360264120196     2.475414599492
H                     0.560492425718    -0.692940390864     3.386427087920
C                    -1.148734015345    -0.966891437540     2.270171260378
C                    -1.078391054951    -2.489328975573     2.311341321453
C                    -0.051072712971    -3.041311559688     1.315610667867
C                     1.346724673864    -2.405580077853     1.479832776997
C                     1.197904246284    -0.877541394840     1.430724824924
C                     2.018081730799    -2.840699844111     2.798186350268
C                     2.248268769090    -2.810661009787     0.300564601583
C                     1.754470595149     5.104891994687     4.419649068447
C                     2.281401379766     5.884807449178     3.195083852977
C                     1.084686655059     6.079498989419     5.406052359849
C                     2.946651154887     4.421622915318     5.119077679924
O                     3.887011964880     5.425274642650     5.481893280959
C                     5.033293926492     5.029829350376     6.123705453454
C                     5.940228204910     6.053327075228     6.436776142391
C                     7.134661879500     5.760051641009     7.087532595103
C                     7.429285461457     4.435145769057     7.429957638226
C                     6.535278786500     3.412348479036     7.125448046996
C                     5.332881402356     3.706729734873     6.469854226648
Cl                    8.934602656197     4.062954640128     8.249770556685
H                    -0.211424123643     5.208701603580     2.415576912710
H                    -1.131441176156     3.773445111403     2.893428664789
H                    -1.092885372212     5.181910160462     3.954118514496
H                     0.829233161827     0.604640547965     5.113363301605
H                     2.247509532087     1.647311363304     5.287835689724
H                     0.175828230093     1.518712268057     1.505800100695
H                    -0.749093125681     1.433398757370     3.024471278141
H                    -1.794871031472    -0.562784329260     3.052106139773
H                    -1.498249376911    -0.597350946676     1.302402663986
H                    -0.855658366690    -2.819365794982     3.332116889941
H                    -2.076909541084    -2.872180543456     2.080435147208
H                     0.025314128516    -4.126813179402     1.427419472939
H                    -0.406594817973    -2.856819142876     0.294253660628
H                     0.798897750135    -0.546914421131     0.468065926636
H                     2.154292410501    -0.379222486447     1.597953549628
H                     2.999673102697    -2.369520799695     2.914863003582
H                     2.171373435929    -3.923289787934     2.801841795312
H                     1.426831657602    -2.612393909093     3.693329877793
H                     3.246700639498    -2.369484260009     0.388183673876
H                     1.819842126153    -2.500884819410    -0.658301159751
H                     2.367353861352    -3.897613961502     0.276194451126
H                     3.075514801697     6.560679229111     3.516817971911
H                     2.691540690198     5.211901321211     2.437493474820
H                     1.498113103196     6.492394990320     2.735690664565
H                     1.834875680284     6.772008899914     5.792570427288
H                     0.643815145279     5.555131951968     6.260024503357
H                     0.305649264313     6.673020973843     4.921263486129
H                     3.422876031008     3.703998704206     4.439163610530
H                     2.605957584889     3.897862309659     6.020251176473
H                     5.694071947803     7.075071847652     6.163718659061
H                     7.835278070473     6.552858725494     7.329402834310
H                     6.769634360059     2.388223705648     7.398508874725
H                     4.648363639399     2.896299398239     6.247352741202
