
  -OEChem-12102412483D

 62 64  0     1  0  0  0  0  0999 V2000
   -0.6423    4.5925    3.0561 C   0  0  0  0  0  0  0  0  0  0  0  0
    0.7099    4.1087    3.5860 C   0  0  2  0  0  0  0  0  0  0  0  0
    1.2776    3.1850    2.6224 O   0  0  0  0  0  0  0  0  0  0  0  0
    1.3614    1.8339    3.0260 C   0  0  1  0  0  0  0  0  0  0  0  0
    2.2658    1.4311    2.5552 H   0  0  0  0  0  0  0  0  0  0  0  0
    1.4855    1.7773    4.5533 C   0  0  0  0  0  0  0  0  0  0  0  0
    0.3745    3.0945    5.1343 S   0  0  0  0  0  0  0  0  0  0  0  0
    0.1150    1.1013    2.4948 C   0  0  0  0  0  0  0  0  0  0  0  0
    0.2418   -0.4046    2.5672 N   0  3  1  0  0  0  0  0  0  0  0  0
    0.7102   -0.6309    3.4510 H   0  0  0  0  0  0  0  0  0  0  0  0
   -1.1101   -1.0927    2.6042 C   0  0  0  0  0  0  0  0  0  0  0  0
   -0.9453   -2.5994    2.7700 C   0  0  0  0  0  0  0  0  0  0  0  0
   -0.0241   -3.1954    1.6986 C   0  0  0  0  0  0  0  0  0  0  0  0
    1.3426   -2.4810    1.6166 C   0  0  0  0  0  0  0  0  0  0  0  0
    1.0978   -0.9735    1.4518 C   0  0  0  0  0  0  0  0  0  0  0  0
    2.2031   -2.7541    2.8668 C   0  0  0  0  0  0  0  0  0  0  0  0
    2.1073   -2.9545    0.3682 C   0  0  0  0  0  0  0  0  0  0  0  0
    1.7614    5.2452    3.8107 C   0  0  0  0  0  0  0  0  0  0  0  0
    3.0812    4.6746    4.3613 C   0  0  0  0  0  0  0  0  0  0  0  0
    2.0551    5.9552    2.4706 C   0  0  0  0  0  0  0  0  0  0  0  0
    1.1919    6.2659    4.8151 C   0  0  0  0  0  0  0  0  0  0  0  0
    2.1848    7.2596    5.0339 O   0  0  0  0  0  0  0  0  0  0  0  0
    1.8887    8.2861    5.8986 C   0  0  0  0  0  0  0  0  0  0  0  0
    2.8898    9.2553    6.0560 C   0  0  0  0  0  0  0  0  0  0  0  0
    2.6928   10.3362    6.9103 C   0  0  0  0  0  0  0  0  0  0  0  0
    1.4878   10.4515    7.6128 C   0  0  0  0  0  0  0  0  0  0  0  0
    0.4881    9.4941    7.4624 C   0  0  0  0  0  0  0  0  0  0  0  0
    0.6853    8.4058    6.6031 C   0  0  0  0  0  0  0  0  0  0  0  0
    1.2371   11.8132    8.6899 Cl  0  0  0  0  0  0  0  0  0  0  0  0
   -0.5116    5.1766    2.1435 H   0  0  0  0  0  0  0  0  0  0  0  0
   -1.2835    3.7384    2.8292 H   0  0  0  0  0  0  0  0  0  0  0  0
   -1.1630    5.2097    3.7917 H   0  0  0  0  0  0  0  0  0  0  0  0
    1.1565    0.8249    4.9849 H   0  0  0  0  0  0  0  0  0  0  0  0
    2.5167    1.9531    4.8627 H   0  0  0  0  0  0  0  0  0  0  0  0
   -0.0582    1.3667    1.4512 H   0  0  0  0  0  0  0  0  0  0  0  0
   -0.7545    1.3863    3.0894 H   0  0  0  0  0  0  0  0  0  0  0  0
   -1.6721   -0.6467    3.4273 H   0  0  0  0  0  0  0  0  0  0  0  0
   -1.6040   -0.8344    1.6636 H   0  0  0  0  0  0  0  0  0  0  0  0
   -0.5737   -2.8198    3.7769 H   0  0  0  0  0  0  0  0  0  0  0  0
   -1.9409   -3.0488    2.7096 H   0  0  0  0  0  0  0  0  0  0  0  0
    0.1307   -4.2602    1.8956 H   0  0  0  0  0  0  0  0  0  0  0  0
   -0.5189   -3.1272    0.7218 H   0  0  0  0  0  0  0  0  0  0  0  0
    0.5585   -0.7561    0.5259 H   0  0  0  0  0  0  0  0  0  0  0  0
    2.0365   -0.4171    1.4439 H   0  0  0  0  0  0  0  0  0  0  0  0
    3.1607   -2.2260    2.8091 H   0  0  0  0  0  0  0  0  0  0  0  0
    2.4219   -3.8224    2.9462 H   0  0  0  0  0  0  0  0  0  0  0  0
    1.7188   -2.4700    3.8089 H   0  0  0  0  0  0  0  0  0  0  0  0
    3.0806   -2.4600    0.2817 H   0  0  0  0  0  0  0  0  0  0  0  0
    1.5412   -2.7590   -0.5485 H   0  0  0  0  0  0  0  0  0  0  0  0
    2.2870   -4.0319    0.4249 H   0  0  0  0  0  0  0  0  0  0  0  0
    3.8054    5.4819    4.4772 H   0  0  0  0  0  0  0  0  0  0  0  0
    2.9464    4.2133    5.3438 H   0  0  0  0  0  0  0  0  0  0  0  0
    3.5045    3.9411    3.6693 H   0  0  0  0  0  0  0  0  0  0  0  0
    2.8479    6.6903    2.6216 H   0  0  0  0  0  0  0  0  0  0  0  0
    1.1856    6.4939    2.0845 H   0  0  0  0  0  0  0  0  0  0  0  0
    2.3862    5.2395    1.7144 H   0  0  0  0  0  0  0  0  0  0  0  0
    0.9425    5.7706    5.7630 H   0  0  0  0  0  0  0  0  0  0  0  0
    0.2863    6.7406    4.4180 H   0  0  0  0  0  0  0  0  0  0  0  0
    3.8174    9.1489    5.5014 H   0  0  0  0  0  0  0  0  0  0  0  0
    3.4673   11.0868    7.0318 H   0  0  0  0  0  0  0  0  0  0  0  0
   -0.4436    9.5905    8.0108 H   0  0  0  0  0  0  0  0  0  0  0  0
   -0.1058    7.6717    6.5032 H   0  0  0  0  0  0  0  0  0  0  0  0
  1  2  1  0  0  0  0
  1 30  1  0  0  0  0
  1 31  1  0  0  0  0
  1 32  1  0  0  0  0
  2  3  1  0  0  0  0
  2  7  1  0  0  0  0
  2 18  1  0  0  0  0
  3  4  1  0  0  0  0
  4  5  1  0  0  0  0
  4  6  1  0  0  0  0
  4  8  1  0  0  0  0
  6  7  1  0  0  0  0
  6 33  1  0  0  0  0
  6 34  1  0  0  0  0
  8  9  1  0  0  0  0
  8 35  1  0  0  0  0
  8 36  1  0  0  0  0
  9 10  1  0  0  0  0
  9 11  1  0  0  0  0
  9 15  1  0  0  0  0
 11 12  1  0  0  0  0
 11 37  1  0  0  0  0
 11 38  1  0  0  0  0
 12 13  1  0  0  0  0
 12 39  1  0  0  0  0
 12 40  1  0  0  0  0
 13 14  1  0  0  0  0
 13 41  1  0  0  0  0
 13 42  1  0  0  0  0
 14 15  1  0  0  0  0
 14 16  1  0  0  0  0
 14 17  1  0  0  0  0
 15 43  1  0  0  0  0
 15 44  1  0  0  0  0
 16 45  1  0  0  0  0
 16 46  1  0  0  0  0
 16 47  1  0  0  0  0
 17 48  1  0  0  0  0
 17 49  1  0  0  0  0
 17 50  1  0  0  0  0
 18 19  1  0  0  0  0
 18 20  1  0  0  0  0
 18 21  1  0  0  0  0
 19 51  1  0  0  0  0
 19 52  1  0  0  0  0
 19 53  1  0  0  0  0
 20 54  1  0  0  0  0
 20 55  1  0  0  0  0
 20 56  1  0  0  0  0
 21 22  1  0  0  0  0
 21 57  1  0  0  0  0
 21 58  1  0  0  0  0
 22 23  1  0  0  0  0
 23 24  2  0  0  0  0
 23 28  1  0  0  0  0
 24 25  1  0  0  0  0
 24 59  1  0  0  0  0
 25 26  2  0  0  0  0
 25 60  1  0  0  0  0
 26 27  1  0  0  0  0
 26 29  1  0  0  0  0
 27 28  2  0  0  0  0
 27 61  1  0  0  0  0
 28 62  1  0  0  0  0
M  CHG  1   9   1
M  END
$$$$
