24   
torsion grid (-165,)
C       -2.9834412481   -0.9105080495    0.7933986972
C       -2.4991248159    0.9981706166   -0.8085035119
C       -0.4753321489   -1.1837335432   -1.0368250624
C        0.5544473949    0.9543342388    1.9178953406
C       -1.9794517441    0.1768819127    0.3856604311
C        0.5058127557    0.4113255446    0.4888039506
N       -0.6341237595   -0.4124538268    0.1936884346
O        1.8049512012    1.5898471767    2.1633898794
O        0.6630182872    1.6033073210   -0.3457743989
H       -2.6084435804   -1.4762139846    1.6511647101
H       -3.9425530272   -0.4568587748    1.0652166729
H       -3.1780568489   -1.6147218483   -0.0227184166
H       -1.7874598034    1.7814036067   -1.0798323649
H       -3.4529107105    1.4704931439   -0.5487443970
H       -2.6779497987    0.3667448330   -1.6857359832
H        0.4658224239   -1.7418306176   -0.9940008191
H       -1.2816605266   -1.9150543995   -1.1303366893
H       -0.4729947889   -0.5751648787   -1.9567894254
H        0.4667361018    0.1264856950    2.6242301531
H       -0.2691828722    1.6581668923    2.0937300138
H       -1.8932378509    0.8593706603    1.2331356993
H        1.3967037950   -0.2138396902    0.3515625246
H        1.9195143465    2.2303019321    1.4401498564
H        0.9842610846    1.3283424758   -1.2180065919
24   
torsion grid (-150,)
C       -2.9537217186   -0.7566902869    0.8970553624
C       -2.5287447545    0.8966838800   -0.9811335398
C       -0.4624367100   -1.2029213106   -1.0350497212
C        0.6370848879    0.7439289364    1.9648717919
C       -1.9675831492    0.2575315788    0.3015888745
C        0.5052980851    0.4574694335    0.4669963544
N       -0.6321184006   -0.3578528516    0.1422820551
O        1.8011879742    1.5156241972    2.2382152184
O        0.5376215901    1.7716589560   -0.1649153666
H       -2.5676102767   -1.1571184487    1.8387843776
H       -3.9240180828   -0.2851064722    1.0879376112
H       -3.1263686894   -1.5979130891    0.2164871909
H       -1.8327558786    1.6366087503   -1.3849540297
H       -3.4731306375    1.4055643142   -0.7602964548
H       -2.7346571910    0.1484217287   -1.7540306248
H        0.4536782733   -1.7923205612   -0.9309390274
H       -1.2933065125   -1.9095650045   -1.1100684656
H       -0.4105038783   -0.6525854338   -1.9904874115
H        0.7423035935   -0.2043266989    2.4953050712
H       -0.2623620054    1.2515019173    2.3402456040
H       -1.8456564031    1.0645489126    1.0271537681
H        1.4027276431   -0.0930737997    0.1604472598
H        1.7803237507    2.2548915709    1.6060404681
H        0.7800923570    1.6598362172   -1.0967776629
24   
torsion grid (-135,)
C       -2.9442597986   -0.6695580173    0.9121606398
C       -2.5501536986    0.8644843945   -1.0703073808
C       -0.4498813034   -1.2567559921   -0.9776674658
C        0.7075447220    0.6220130078    1.9511706217
C       -1.9707901827    0.3123216375    0.2444128343
C        0.5008281142    0.5203475892    0.4381633259
N       -0.6359656913   -0.2902742034    0.0945984218
O        1.8352887044    1.4262082863    2.2771835765
O        0.4476296805    1.8951377395   -0.0281911551
H       -2.5410004965   -1.0147060608    1.8685893001
H       -3.9128973160   -0.1904449627    1.0928876040
H       -3.1259024445   -1.5485025765    0.2835551898
H       -1.8693731475    1.5910330182   -1.5235029424
H       -3.5038014491    1.3689241550   -0.8816531524
H       -2.7390714729    0.0661313212   -1.7962343216
H        0.4641061986   -1.8314281874   -0.8005451369
H       -1.2786650837   -1.9702578318   -0.9835303944
H       -0.3864375484   -0.8161201829   -1.9885613710
H        0.8960837016   -0.3787153436    2.3445393173
H       -0.2060973600    1.0103242129    2.4257765981
H       -1.8418802022    1.1636764223    0.9173560322
H        1.3923712590    0.0431004795    0.0133741304
H        1.7437242875    2.2370574657    1.7477861433
H        0.5939443941    1.9008000647   -0.9866017117
24   
torsion grid (-120,)
C       -2.6904700181   -0.5914467324    0.9577314816
C       -2.7502438928    0.7908316367   -1.1655073661
C       -0.3898975954   -1.1904106847   -1.0724022667
C        0.4270325911    0.5924979770    1.9894320928
C       -1.9342852596    0.4268990506    0.0857858071
C        0.5478698121    0.5213154879    0.4622404369
N       -0.5747112699   -0.0044451421   -0.2538439570
O        1.6106497136    1.1247552003    2.5751958444
O        0.8308313251    1.8981715942    0.0897558143
H       -2.1430729550   -0.8070092999    1.8800882025
H       -3.6808615647   -0.2101871508    1.2301980588
H       -2.8358503314   -1.5361989323    0.4220084339
H       -2.1973635272    1.4978380661   -1.7915935622
H       -3.6981877108    1.2553418244   -0.8742915650
H       -2.9936538973   -0.0892429452   -1.7701831162
H        0.6267738199   -1.2045867114   -1.4764023066
H       -0.5462332802   -2.1386663202   -0.5312323466
H       -1.0747173298   -1.1810303834   -1.9260204491
H        0.3020231405   -0.4164131263    2.3916250671
H       -0.4488331602    1.1920839815    2.2710332556
H       -1.8175529841    1.3517651576    0.6569189053
H        1.4201118964   -0.0983410595    0.2209750668
H        1.8089422273    1.9402250398    2.0836962336
H        0.8270441171    1.9310499084   -0.8804490619
24   
torsion grid (-105,)
C       -2.6490524453   -0.5496072066    0.9306011249
C       -2.7688961354    0.8036913237   -1.2065071422
C       -0.3870791453   -1.2265215929   -0.9811505806
C        0.4317727715    0.5168073442    1.9547635916
C       -1.9254358485    0.4716972647    0.0341728695
C        0.5483247863    0.5656325919    0.4264906248
N       -0.5620864091    0.0732477734   -0.3494959099
O        1.6129354139    1.0153981442    2.5754143805
O        0.7792352302    1.9653632252    0.1516795475
H       -2.0689097820   -0.7825619856    1.8279704005
H       -3.6203195373   -0.1561292465    1.2495596953
H       -2.8339027888   -1.4871047782    0.3948791083
H       -2.2594089467    1.5474194939   -1.8261756058
H       -3.7425271467    1.2073093603   -0.9085606939
H       -2.9584501064   -0.0829067139   -1.8212185151
H        0.5910902289   -1.2680127743   -1.4705004591
H       -0.4538896074   -2.0823540231   -0.2883323088
H       -1.1438137814   -1.3700862673   -1.7573104500
H        0.3202158626   -0.5201534856    2.2831334460
H       -0.4493854543    1.0850009094    2.2813489722
H       -1.8114057232    1.4041518661    0.5943623484
H        1.4344642388   -0.0128184333    0.1350921590
H        1.7935217389    1.8752558023    2.1588156795
H        0.7483464534    2.0620778441   -0.8142735791
24   
torsion grid (-90,)
C       -2.9790052648   -0.8360737226    0.5591238035
C       -2.3212782848    1.1961345213   -0.8139123303
C       -0.5009453991   -1.1706376711   -1.1759402718
C        1.7106447705   -0.3048908249    0.9002548345
C       -1.8995376738    0.2211128781    0.2985005707
C        0.5950619758    0.4814536868    0.1964469140
N       -0.5799339239   -0.4296988134    0.0866067401
O        1.2458669364   -0.6840716456    2.1957320598
O        0.3179575337    1.6384208724    0.9602475941
H       -2.6535973208   -1.5385936154    1.3330608784
H       -3.8990829184   -0.3498275211    0.8997569967
H       -3.2312173523   -1.4085191984   -0.3396927792
H       -1.5456957748    1.9460194830   -0.9937461658
H       -3.2335838955    1.7257379652   -0.5189226729
H       -2.5340527624    0.6780017415   -1.7550819192
H        0.4388757585   -1.7293290699   -1.2202129061
H       -1.3095302850   -1.9012862768   -1.2381869125
H       -0.5452419499   -0.5218843451   -2.0654825262
H        2.5855873556    0.3334609260    1.0448577391
H        2.0092485367   -1.1838635876    0.3140507056
H       -1.7930136110    0.8042981440    1.2140248594
H        0.9147247030    0.8376365224   -0.7932314632
H        0.3994836194   -1.1412198798    2.0175769311
H        0.4183899812    1.3762965852    1.8942092126
24   
torsion grid (-75,)
C       -3.0390846124   -0.7712278755    0.5568056895
C       -2.3095155741    1.1622197912   -0.9205053844
C       -0.4714085655   -1.2112677145   -1.0378703325
C        1.7525133768   -0.2583986964    0.7654300025
C       -1.9465669902    0.2664556977    0.2759551735
C        0.5286810690    0.5435522149    0.2993338536
N       -0.6161994341   -0.3896597517    0.1694395207
O        1.4405604037   -0.8828125162    2.0118224403
O        0.2675253670    1.5571603492    1.2506352184
H       -2.7443087864   -1.4263078475    1.3826336118
H       -3.9687898644   -0.2636701967    0.8344157601
H       -3.2621928733   -1.3960779725   -0.3146851748
H       -1.5392069291    1.9190029523   -1.0987317151
H       -3.2487852728    1.6889382273   -0.7211647399
H       -2.4460696287    0.5834662151   -1.8403812503
H        0.3926181460   -1.8746001930   -0.9502153307
H       -1.3488059102   -1.8476491976   -1.1613588243
H       -0.3461629910   -0.6154158906   -1.9572137703
H        2.5840373145    0.4267296775    0.9456929786
H        2.0690630604   -0.9965747168    0.0185102633
H       -1.8759710262    0.9097989314    1.1532409506
H        0.7410780299    1.0635539581   -0.6477596405
H        0.5699107185   -1.3032521344    1.8616358596
H        0.4272057271    1.1547138431    2.1243747329
24   
torsion grid (-60,)
C       -3.0734886743   -0.6832788116    0.6057325924
C       -2.3145814960    1.0883037165   -1.0488885349
C       -0.4377791991   -1.2152614690   -0.9395556892
C        1.7677756583   -0.2050345867    0.6518559131
C       -1.9748164106    0.3209046362    0.2408265203
C        0.4773555266    0.5910989354    0.4260292390
N       -0.6456697815   -0.3430981026    0.2226821997
O        1.5963103793   -1.0747285120    1.7738937894
O        0.2400967587    1.4237757527    1.5472138129
H       -2.8162091060   -1.2124338954    1.5282686292
H       -4.0231344071   -0.1600232494    0.7598935734
H       -3.2391571967   -1.4277141898   -0.1808825008
H       -1.5298786876    1.8060722956   -1.3094756408
H       -3.2433647145    1.6525061969   -0.9140023409
H       -2.4589662008    0.4152165706   -1.9009675034
H        0.3418134918   -1.9548436153   -0.7395816320
H       -1.3541499132   -1.7696138654   -1.1476868745
H       -0.1597307179   -0.6672996241   -1.8555079206
H        2.5690200481    0.4924065846    0.9059300036
H        2.0687337845   -0.7611301281   -0.2440126212
H       -1.9132351501    1.0468018984    1.0526865716
H        0.6088590164    1.2755896338   -0.4275184684
H        0.7119745725   -1.4737160885    1.6598062739
H        0.4123471737    0.8741770719    2.3333005010
24   
torsion grid (-45,)
C       -3.1207030460   -0.5932866316    0.6082795180
C       -2.2913723426    1.0492996031   -1.1418905390
C       -0.4375390927   -1.2541908454   -0.8427217489
C        1.7699419167   -0.1276344245    0.5606507906
C       -1.9943799451    0.3646715484    0.2043919222
C        0.4269589035    0.6051458445    0.5430783774
N       -0.6785848358   -0.3164784270    0.2561774343
O        1.7794442365   -1.1271902616    1.5869296520
O        0.2149532750    1.2568056483    1.7854022916
H       -2.8978359289   -1.0565924612    1.5739059390
H       -4.0670686064   -0.0487327406    0.6942440603
H       -3.2721104618   -1.3907680880   -0.1277867569
H       -1.4808957479    1.7228179867   -1.4401760721
H       -3.2052071353    1.6478316426   -1.0656791696
H       -2.4410092258    0.3204942120   -1.9458830965
H        0.3403900573   -1.9780782611   -0.5855525286
H       -1.3482364673   -1.8262005666   -1.0300491703
H       -0.1467856199   -0.7713703635   -1.7912773822
H        2.5490893073    0.5902680447    0.8242655379
H        2.0145723754   -0.5544766671   -0.4190358663
H       -1.9368758817    1.1385993562    0.9725846753
H        0.4881734254    1.4217734309   -0.1955549982
H        0.9477089018   -1.6256383843    1.5026569880
H        0.3974966928    0.5916079598    2.4730800345
24   
torsion grid (-30,)
C       -3.1803664563   -0.5120051358    0.5749919075
C       -2.2532178869    1.0392146005   -1.2090377078
C       -0.4642517470   -1.3149056905   -0.7334080244
C        1.7590007157   -0.0376571682    0.4955063113
C       -2.0157894218    0.3998596968    0.1712798813
C        0.3739900871    0.5956151424    0.6468900865
N       -0.7205655860   -0.3030608872    0.2847969725
O        1.9759948652   -1.0767286074    1.4594125458
O        0.1982243471    1.0808448358    1.9701356122
H       -2.9969703940   -0.9459395487    1.5621270534
H       -4.1135082847    0.0601490670    0.6135016782
H       -3.3322610214   -1.3302157238   -0.1378934602
H       -1.4159703527    1.6808045113   -1.5046933777
H       -3.1554615789    1.6596646678   -1.1913260707
H       -2.3900298866    0.2803650089   -1.9873037506
H        0.3091149728   -2.0211653488   -0.4161869301
H       -1.3714071094   -1.9037838227   -0.8857232481
H       -0.1613859866   -0.9157946799   -1.7172090590
H        2.5018802223    0.7280764562    0.7251851282
H        1.9354567973   -0.3902690026   -0.5274466575
H       -1.9641353749    1.1990845769    0.9152594135
H        0.3685722224    1.5059683985    0.0243192259
H        1.3167704018   -1.7727224640    1.3084896279
H        0.4064412101    0.3332782718    2.5583727347
24   
torsion grid (-15,)
C       -2.1531284319    1.3226242669   -0.8084437735
C       -2.1302696901    0.9698981035    1.6981517900
C       -0.6452162270   -1.3784752737   -0.8845555005
C        1.7947219139   -0.0908978529   -0.2769729099
C       -1.9423136912    0.3048829921    0.3297911013
C        0.5281963088    0.3543937719    0.4647170080
N       -0.6657616894   -0.4509500860    0.2499404287
O        2.2770560038   -1.3511899411    0.1702829120
O        0.8669232096    0.3240394783    1.8742015954
H       -2.0377750538    0.8594571849   -1.7928424241
H       -3.1639241733    1.7406935407   -0.7560420349
H       -1.4505759660    2.1601765227   -0.7408375220
H       -2.0751187157    0.2300606067    2.5034372662
H       -3.1146714542    1.4470635373    1.7440687382
H       -1.3745752001    1.7370175740    1.8894927113
H        0.2134712649   -2.0456164718   -0.8013794510
H       -1.5525953877   -1.9888513495   -0.8463870386
H       -0.6149232469   -0.8881236138   -1.8708675185
H        2.5492924468    0.6911370470   -0.1139788938
H        1.6220941031   -0.1693959164   -1.3529332344
H       -2.7230033036   -0.4587709232    0.2333436261
H        0.3545220672    1.4094918867    0.2138847001
H        2.3155889817   -1.2774314507    1.1401057985
H        0.2556408382   -0.3302612328    2.2516980246
24   
torsion grid (0,)
C       -2.0756476838    1.3518108999   -0.8460618735
C       -2.1696760868    1.0026743498    1.6663295996
C       -0.6571113839   -1.4562367527   -0.7759467100
C        1.7431491444    0.0033175347   -0.3282757552
C       -1.9476354390    0.3344886689    0.3043672557
C        0.5161383676    0.3144584012    0.5413974431
N       -0.6919421654   -0.4494034003    0.2856874612
O        2.3241993624   -1.2572803576   -0.0204540211
O        0.9461888811    0.0970998814    1.9108866333
H       -1.9139514437    0.8785849453   -1.8194543847
H       -3.0777400658    1.7936738748   -0.8537882038
H       -1.3570682919    2.1722405221   -0.7427595270
H       -2.1713586214    0.2572116009    2.4680903401
H       -3.1349462745    1.5192330387    1.6780725679
H       -1.3945965093    1.7416283326    1.8920226100
H        0.2269485010   -2.0843427139   -0.6637658967
H       -1.5437896884   -2.0914133363   -0.6827648169
H       -0.6539114320   -1.0355681718   -1.7949431839
H        2.4708122974    0.8107640915   -0.1652621373
H        1.4809408836   -0.0035436559   -1.3891361856
H       -2.7442986050   -0.4074424083    0.1749092575
H        0.3136379361    1.3874655524    0.4420533577
H        2.3806282494   -1.2725262863    0.9521944167
H        0.2646849755   -0.4859222103    2.2844771524
24   
torsion grid (15,)
C       -1.9580028488    1.3648335097   -0.8819539806
C       -2.2438856422    1.0417886430    1.6239353862
C       -0.6734151539   -1.5348227953   -0.6342793745
C        1.6666252434    0.1198511172   -0.3802206147
C       -1.9452908198    0.3582468580    0.2842078740
C        0.5090329169    0.2643348300    0.6240153390
N       -0.7180842194   -0.4633705260    0.3618645092
O        2.3374308440   -1.1285033428   -0.2700126445
O        1.0627611843   -0.1504381320    1.8979693406
H       -1.7414157839    0.8729707572   -1.8354653778
H       -2.9407650221    1.8406684015   -0.9686379376
H       -1.2198245320    2.1609710194   -0.7345215255
H       -2.3047821983    0.3009694030    2.4273060464
H       -3.1992375050    1.5743865165    1.5729135534
H       -1.4752801870    1.7734128038    1.8937378340
H        0.2159077175   -2.1467255656   -0.4839063194
H       -1.5580189253   -2.1681517620   -0.5119673546
H       -0.6583220461   -1.1747191470   -1.6760114462
H        2.3677153257    0.9475590624   -0.2002438571
H        1.2970836172    0.2087898005   -1.4052077973
H       -2.7525311197   -0.3610831857    0.1043892449
H        0.2777071731    1.3318275842    0.6968753595
H        2.4454359503   -1.2673134043    0.6887921589
H        0.3428109387   -0.6445100449    2.3242969830
24   
torsion grid (30,)
C       -1.8305111379    1.3461391959   -0.9175814274
C       -2.3095523985    1.1012783006    1.5668171989
C       -0.6852698142   -1.6083192896   -0.4820875395
C        1.5626697648    0.2625813581   -0.4037761935
C       -1.9322798238    0.3717569501    0.2712175622
C        0.5035652750    0.2051790411    0.7151672341
N       -0.7446468730   -0.4892722069    0.4603448450
O        2.2603815494   -0.9631968376   -0.5752459562
O        1.1847480703   -0.4132690429    1.8276040942
H       -1.5641581723    0.8232580407   -1.8415186190
H       -2.7884246094    1.8504561688   -1.0848031933
H       -1.0779216797    2.1216858467   -0.7362344122
H       -2.4164873667    0.3875097531    2.3892533305
H       -3.2609436260    1.6284430338    1.4396052854
H       -1.5625318423    1.8475685905    1.8569048377
H        0.1527328525   -2.2595897064   -0.2333817509
H       -1.6112690784   -2.1866974435   -0.4019413385
H       -0.5601479818   -1.3026504951   -1.5327220524
H        2.2649993557    1.0730007893   -0.1579919683
H        1.0882870765    0.5063605462   -1.3578443099
H       -2.7483017845   -0.3262485719    0.0525063439
H        0.2602665933    1.2379633827    0.9843538654
H        2.4689106232   -1.2646654463    0.3271694834
H        0.4795399352   -0.8282995566    2.3520600800
24   
torsion grid (45,)
C       -1.7748574993    1.3211835619   -0.9659659022
C       -2.3203020834    1.1649933939    1.5078023152
C       -0.6987986124   -1.6698207476   -0.3721034242
C        1.5043703902    0.3914110830   -0.3645494617
C       -1.9176247350    0.3843933301    0.2488974441
C        0.5074715886    0.1469240607    0.7867909958
N       -0.7584965531   -0.4938865554    0.4970459672
O        2.1665771098   -0.7917772029   -0.7937327496
O        1.2421776182   -0.6344176486    1.7442694441
H       -1.4761145168    0.7707273130   -1.8635747316
H       -2.7279664560    1.8171191268   -1.1801199647
H       -1.0313120022    2.1045307846   -0.7814953488
H       -2.4323765501    0.4865452960    2.3588215743
H       -3.2751014550    1.6752492610    1.3427078130
H       -1.5875135587    1.9335248493    1.7749865623
H        0.1141241017   -2.3226284011   -0.0511712009
H       -1.6398378740   -2.2231370425   -0.2835370157
H       -0.5301764250   -1.4353462918   -1.4341531422
H        2.2351268286    1.1406632730   -0.0236377117
H        0.9809144459    0.7985600382   -1.2315525046
H       -2.7406747604   -0.3057874490    0.0309742039
H        0.2755711415    1.1273294591    1.2191655792
H        2.4474220996   -1.2435295919    0.0210420485
H        0.5710526648   -1.0218514989    2.3309646096
24   
torsion grid (60,)
C       -2.1891642499   -1.6137372914    0.3570641021
C       -3.4348587363    0.5685628370    0.0531947891
C       -0.6486756543    0.2523819677   -1.3771837076
C        1.2038542366    1.7178771926    0.4765684539
C       -2.1470297574   -0.0873538414    0.5711798043
C        0.1732860502    0.6677803784    0.8947229482
N       -0.9586094932    0.5915586921    0.0139293239
O        2.2210079048    1.8418393555    1.4649987130
O        0.9585820033   -0.5594267648    1.0256051445
H       -1.2810420949   -2.1060362878    0.7180790220
H       -3.0442210913   -2.0459714949    0.8877342021
H       -2.2982828540   -1.8656929896   -0.7026850484
H       -3.4161519430    1.6450167389    0.2443894609
H       -4.3113043328    0.1378462646    0.5494154330
H       -3.5618919515    0.4158609582   -1.0239119805
H       -0.1049383155   -0.6971754331   -1.4810222583
H       -1.5760026362    0.1838089502   -1.9495591402
H       -0.0518768997    1.0436915691   -1.8370124983
H        0.7154559007    2.6903259711    0.3880742346
H        1.6437597234    1.4526959846   -0.4936925836
H       -2.1089148945    0.0966498470    1.6517297360
H       -0.1962153606    0.9452795859    1.8887589982
H        2.5418566417    0.9371035395    1.6232090361
H        0.4967216709   -1.1580892934    1.6311725181
24   
torsion grid (75,)
C       -2.1236011947   -1.5172214339    0.7357528969
C       -3.4212749834    0.4412115914   -0.2035000765
C       -0.7272397331    0.3649489894   -1.4106295629
C        1.1326938236    1.7664755030    0.6921146821
C       -2.1744500904    0.0180149325    0.5823161036
C        0.2141096976    0.5517982970    0.8472756807
N       -0.9579472580    0.6271778435    0.0107456037
O        2.2641029580    1.6701385507    1.5503558940
O        1.0824846131   -0.5869232871    0.5954573109
H       -1.3510087526   -1.8271877870    1.4493118373
H       -3.0770705574   -1.8965970878    1.1188796758
H       -1.9302246144   -2.0128847224   -0.2210577160
H       -3.4253852278    1.5235725389   -0.3634378681
H       -4.3228708683    0.1704662882    0.3549198863
H       -3.4795847084   -0.0537330900   -1.1783170190
H       -0.6932263789   -0.7051104992   -1.6646843833
H       -1.5081363555    0.8388049816   -2.0109298241
H        0.2275984664    0.7950575309   -1.7131282242
H        0.5819200645    2.6641667533    0.9793558238
H        1.4456106669    1.8735352688   -0.3556210994
H       -2.2718468252    0.4468813495    1.5868914680
H       -0.1205952239    0.5169911889    1.8911207721
H        2.6268732873    0.7786267740    1.4092711403
H        0.6344130613   -1.3934140380    0.8922957012
24   
torsion grid (90,)
C       -2.1495755285   -1.4661036100    0.7702612458
C       -3.4076810249    0.5039929544   -0.2033404860
C       -0.7142192351    0.2300967635   -1.4358421114
C        1.0556954650    1.7943586649    0.8032862557
C       -2.1604214439    0.0635477333    0.5710353433
C        0.2480867782    0.4965950965    0.8011128278
N       -0.9328137017    0.6168422650   -0.0403919399
O        2.2128984354    1.6959878893    1.6264611164
O        1.1766288910   -0.5404631770    0.4225527877
H       -1.3240394024   -1.7829484437    1.4187831600
H       -3.0769698864   -1.7978296368    1.2494774549
H       -2.0630014557   -1.9971922260   -0.1832155608
H       -3.3794379687    1.5811261329   -0.3932426095
H       -4.3072715807    0.2776837594    0.3778841952
H       -3.5001385661   -0.0147166260   -1.1629807676
H       -0.6723704984   -0.8566062758   -1.6018665088
H       -1.5066183718    0.6463128343   -2.0626600931
H        0.2339365464    0.6446978458   -1.7826919814
H        0.4323201000    2.5923091598    1.2104646853
H        1.3230218419    2.0617599981   -0.2301662063
H       -2.2252598252    0.5263379997    1.5629403352
H       -0.0846801624    0.3138860574    1.8303635975
H        2.6513620782    0.8663759833    1.3711764192
H        0.7958923824   -1.4012547060    0.6553575442
24   
torsion grid (105,)
C       -2.2182691006   -1.4343758319    0.7686861596
C       -3.3663601339    0.6218892109   -0.1678992154
C       -0.7010517520    0.0284334719   -1.4743758828
C        0.9433685373    1.8159537547    0.9140661920
C       -2.1232037461    0.0894398980    0.5537781721
C        0.3011934184    0.4413963031    0.7425321910
N       -0.8840680676    0.5383620386   -0.1159440285
O        2.0720746874    1.7749557436    1.7810886403
O        1.3390333234   -0.4213938551    0.2565686205
H       -1.3497904060   -1.8194122593    1.3163495307
H       -3.1091223236   -1.6856663448    1.3542612434
H       -2.2872885828   -1.9710338493   -0.1830081199
H       -3.2656754985    1.6944357196   -0.3584367344
H       -4.2565288155    0.4590796772    0.4484209409
H       -3.5355210648    0.1154042548   -1.1236569636
H       -0.6366400749   -1.0686697401   -1.5482316794
H       -1.5305215417    0.3635200507   -2.1018245065
H        0.2189106674    0.4374695573   -1.8958470241
H        0.2125832146    2.4909828640    1.3635388255
H        1.2090203712    2.2107028053   -0.0785166429
H       -2.1081890485    0.5649204711    1.5415849390
H       -0.0080636700    0.0927301218    1.7368364045
H        2.6389658787    1.0583082733    1.4494240047
H        1.0704875946   -1.3426358993    0.3953636366
24   
torsion grid (120,)
C       -2.2953512906   -1.3940974785    0.7801273740
C       -3.2936635206    0.7475411102   -0.1424416649
C       -0.6904527523   -0.1872304571   -1.5020937877
C        0.8006842592    1.8067769011    1.0253483122
C       -2.0746137277    0.1118792625    0.5366484245
C        0.3567419881    0.3875836470    0.6798271818
N       -0.8309926669    0.4341520499   -0.1893412444
O        1.8933063083    1.8206212977    1.9384206277
O        1.4967564738   -0.2303832150    0.0788558531
H       -1.4277906368   -1.8558033389    1.2656237246
H       -3.1615679657   -1.5557935296    1.4305329070
H       -2.4825932499   -1.9267663093   -0.1579355930
H       -3.1117692455    1.8094496554   -0.3314214292
H       -4.1767255374    0.6513423893    0.4979765106
H       -3.5295311315    0.2637581760   -1.0960051586
H       -0.6066952851   -1.2881739828   -1.4880581188
H       -1.5584436557    0.0703456819   -2.1140377882
H        0.1956104124    0.2070761689   -2.0014635044
H       -0.0251938299    2.3368280455    1.5047249536
H        1.0439405982    2.3266751276    0.0872079324
H       -1.9754650105    0.5961374810    1.5155075305
H        0.1209740454   -0.1417827190    1.6159268698
H        2.5800567717    1.2568523816    1.5447907391
H        1.3781225156   -1.1921919094    0.0960380515
24   
torsion grid (135,)
C       -2.3404163438   -1.3418760138    0.7900628794
C       -3.2329963495    0.8419937589   -0.1457067383
C       -0.6861336064   -0.3665165404   -1.4985150066
C        0.6856701160    1.7711751857    1.1293873870
C       -2.0377686606    0.1440329718    0.5145218679
C        0.3934746075    0.3621381088    0.6150043627
N       -0.7971904281    0.3827095850   -0.2514400693
O        1.7661712984    1.7847886509    2.0562305629
O        1.5806608234   -0.0256261186   -0.0762746249
H       -1.4837463593   -1.8526307649    1.2437798130
H       -3.1854103476   -1.4367330743    1.4800906853
H       -2.6036277594   -1.8740352313   -0.1298408990
H       -3.0034422230    1.8958047929   -0.3268487669
H       -4.1156387679    0.7797621923    0.4998557296
H       -3.4961314843    0.3796752115   -1.1029569393
H       -0.5574747390   -1.4576917995   -1.3744811936
H       -1.5924467822   -0.2105125377   -2.0886162106
H        0.1560193643    0.0107845505   -2.0800063266
H       -0.1857698066    2.1690250677    1.6533721797
H        0.8843097800    2.4090864339    0.2569396365
H       -1.8856555424    0.6320039888    1.4840143288
H        0.2498306544   -0.3130697608    1.4765990256
H        2.5144409645    1.3618622624    1.6028988693
H        1.5986154582   -0.9913544838   -0.1533118495
24   
torsion grid (150,)
C       -2.3603140756   -1.2721010530    0.8274908783
C       -3.2039980099    0.8909504101   -0.1980827408
C       -0.6926972788   -0.4931388879   -1.4722149063
C        0.6131280150    1.7020143942    1.2520406123
C       -2.0228518132    0.1930408618    0.4870458712
C        0.4181470503    0.3571300337    0.5465347983
N       -0.7814492976    0.3768826351   -0.3014615392
O        1.7365977355    1.6695582910    2.1245292854
O        1.6104879452    0.1889738983   -0.2236265320
H       -1.5127065417   -1.7888320842    1.2903567078
H       -3.1959523292   -1.3103487220    1.5340467960
H       -2.6558192082   -1.8359285126   -0.0631622367
H       -2.9569658469    1.9354053600   -0.4074416404
H       -4.0908662508    0.8601967924    0.4441388707
H       -3.4690415478    0.4069434080   -1.1441194966
H       -0.5129627551   -1.5590368609   -1.2371427102
H       -1.6278123444   -0.4362551607   -2.0336383632
H        0.1061750313   -0.1449856117   -2.1286657084
H       -0.2505680878    1.9549157773    1.8683067094
H        0.7206493060    2.4695064100    0.4733753198
H       -1.8588878588    0.7122582834    1.4358888103
H        0.3757648793   -0.4468771621    1.3052040010
H        2.4882967888    1.3805919130    1.5803315925
H        1.7489903612   -0.7560679774   -0.3849756758
24   
torsion grid (165,)
C       -3.0035274350   -1.0795259483    0.6347975654
C       -2.4129100713    1.1345398070   -0.4496725521
C       -0.5115444677   -1.1464357838   -1.0740258567
C        0.3772876173    1.2579745031    1.7203630040
C       -1.9548854791    0.0368371340    0.5295462750
C        0.5353973974    0.2986536843    0.5387138253
N       -0.6144899863   -0.5353073187    0.2510426539
O        1.6189823095    1.8913466773    2.0036192945
O        0.9167881800    1.2094210173   -0.5461164601
H       -2.6474294006   -1.8797107540    1.2904465557
H       -3.9327710975   -0.6764783363    1.0507716321
H       -3.2493693807   -1.5130171671   -0.3399763829
H       -1.6611220389    1.9210226371   -0.5513529766
H       -3.3461679114    1.5871097139   -0.0962356648
H       -2.6052649007    0.7246895591   -1.4468548323
H        0.4592959983   -1.6500737163   -1.1632224604
H       -1.2775522804   -1.9150150919   -1.1940240272
H       -0.6053015880   -0.4310717776   -1.9032462504
H        0.0871114807    0.7141015822    2.6224779029
H       -0.3907843381    2.0063140182    1.4907844950
H       -1.8917320496    0.4793280013    1.5260053167
H        1.3920439394   -0.3612669460    0.7271458384
H        1.9163576469    2.2680662721    1.1571946320
H        1.4269317223    0.7132946693   -1.2034228242
24   
torsion grid (180,)
C       -3.0146362144   -1.0353864132    0.6140098113
C       -2.4151034198    1.1481166937   -0.5249950840
C       -0.4900879677   -1.2363100382   -0.9949151179
C        0.4507985374    1.1757183850    1.7872895481
C       -1.9689704372    0.0818153645    0.4929959787
C        0.5152700891    0.3593421258    0.4968045214
N       -0.6233061727   -0.4892019776    0.2536810754
O        1.7050015107    1.8009857111    2.0363749807
O        0.7787947439    1.3726138247   -0.5287785189
H       -2.6641514412   -1.8208257003    1.2905372113
H       -3.9482494070   -0.6254447596    1.0125984058
H       -3.2502543308   -1.4894146233   -0.3540423142
H       -1.6874564741    1.9592776508   -0.5957868319
H       -3.3831827401    1.5673082031   -0.2281925386
H       -2.5376060453    0.7167679227   -1.5245691925
H        0.5041453716   -1.6963809651   -1.0305108069
H       -1.2197903184   -2.0477635779   -1.0328541058
H       -0.6171428991   -0.6240366021   -1.9020689158
H        0.2439190743    0.5195484977    2.6356782674
H       -0.3428099508    1.9305727501    1.7172749786
H       -1.9203826450    0.5563932231    1.4761818451
H        1.3992418763   -0.2888497426    0.5520253465
H        1.9243386295    2.2811575797    1.2191732659
H        1.1869644975    0.9387929038   -1.2931531065
