17   
torsion grid (-165,)
C       -1.7232593400    1.1346993344    0.6322165656
C       -0.8803788160    0.5527003993   -0.4936196101
C       -2.5004093828    0.9018948571    5.4160291175
C       -1.5936223656    0.5704243321    4.2336103856
N       -1.4528526021    0.5941167736    1.8735545791
N       -2.2426849321    0.9580243446    2.9817351216
O       -2.5539723807    2.0131741878    0.4427988337
H       -1.5407343723    0.0692838453   -1.2191575359
H       -0.3773286410    1.3771865052   -1.0050497772
H       -0.1278015193   -0.1666606838   -0.1573190031
H       -2.0066193304    0.6448773602    6.3579710617
H       -2.7413094389    1.9685371154    5.4266150188
H       -3.4402393392    0.3392418686    5.3688317403
H       -0.6553885917    1.1301928854    4.3046702788
H       -1.3323310022   -0.5055870384    4.2551568631
H       -1.0242034067   -0.3313620111    1.8908652249
H       -3.1591274503    0.5122412748    2.9038903059
17   
torsion grid (-150,)
C       -1.6994065628    1.1570397026    0.6489859021
C       -0.8672479212    0.5711169880   -0.4840797722
C       -2.4871582243    0.9231819714    5.4130702498
C       -1.5947575325    0.5956559349    4.2186609354
N       -1.5487354230    0.4951191896    1.8517018689
N       -2.3169228754    0.8503921484    2.9708471243
O       -2.4212127706    2.1313355672    0.4918398263
H       -1.5401917177    0.2172941948   -1.2701884437
H       -0.2564366452    1.3713305717   -0.9092434213
H       -0.2122524040   -0.2501665530   -0.1778453167
H       -1.9427903400    0.7670224728    6.3492737696
H       -2.8178394056    1.9646883261    5.3697637938
H       -3.3766469203    0.2822927851    5.4354043665
H       -0.7065977540    1.2353331145    4.2189879996
H       -1.2420549823   -0.4508649763    4.2923313186
H       -1.1243923879   -0.4312683202    1.8363191401
H       -3.1976190441    0.3334822326    2.9569698289
17   
torsion grid (-135,)
C       -1.6833084730    1.1643476832    0.6750494224
C       -0.8521493028    0.5878464141   -0.4643164102
C       -2.4686485574    0.9437990351    5.4024803108
C       -1.6025325513    0.6206366610    4.1877486080
N       -1.6619106294    0.3977095947    1.8224194982
N       -2.3927186753    0.7544857863    2.9611216423
O       -2.3044144081    2.2110370229    0.5621986657
H       -1.5146464466    0.3705297725   -1.3066363592
H       -0.1420931214    1.3512243181   -0.7919526858
H       -0.3013433168   -0.3206484587   -0.2019163454
H       -1.8770824682    0.8784785765    6.3206174655
H       -2.8795156792    1.9540933497    5.3218179696
H       -3.3048056449    0.2404027270    5.4958452259
H       -0.7677608400    1.3248841332    4.1164609136
H       -1.1678145606   -0.3909307176    4.2962446274
H       -1.1959448365   -0.5069313819    1.8021596657
H       -3.2355733997    0.1820208342    3.0134569558
17   
torsion grid (-120,)
C       -1.6772822462    1.1584319103    0.7104985485
C       -0.8340921107    0.6044039839   -0.4312718673
C       -2.4428488874    0.9665720638    5.3828999039
C       -1.6163916854    0.6446968188    4.1405884183
N       -1.7878263708    0.3007356957    1.7875536058
N       -2.4727442907    0.6657650464    2.9505959038
O       -2.2099289508    2.2565887625    0.6517575281
H       -1.4592110646    0.5396527907   -1.3257696988
H       -0.0290448467    1.3130031234   -0.6421775572
H       -0.3996921482   -0.3799646481   -0.2314444509
H       -1.8045534355    0.9853718295    6.2713964716
H       -2.9262359688    1.9419700326    5.2784239511
H       -3.2224598850    0.2136267393    5.5503496899
H       -0.8383693594    1.4007524227    3.9953447191
H       -1.1070852468   -0.3287756360    4.2695496361
H       -1.2524252441   -0.5646880393    1.7840287069
H       -3.2720711700    0.0448424541    3.0704756615
17   
torsion grid (-105,)
C       -1.6629518923    1.1471410694    0.7630382255
C       -0.8195863213    0.6196934702   -0.3905570809
C       -2.4185057191    0.9925641452    5.3537840400
C       -1.6329876661    0.6727249703    4.0848565224
N       -1.9023846856    0.2092783825    1.7532937511
N       -2.5466735454    0.5749484908    2.9410124916
O       -2.0983108706    2.2882106614    0.7822850852
H       -1.3970245306    0.7169547364   -1.3135257441
H        0.0686618717    1.2492730358   -0.4894978893
H       -0.5088708722   -0.4233305358   -0.2770873542
H       -1.7405384274    1.0997966008    6.2059171902
H       -2.9774801074    1.9245728445    5.2319459926
H       -3.1307059773    0.1940695975    5.5948015750
H       -0.9244724695    1.4773612898    3.8648946724
H       -1.0455975033   -0.2536447765    4.2268631441
H       -1.3248654223   -0.6299323446    1.7575749391
H       -3.2899687725   -0.0966962876    3.1231996094
17   
torsion grid (-90,)
C       -1.6501644667    1.1236833690    0.8262000043
C       -0.8125687969    0.6336222487   -0.3469828893
C       -2.3999208831    1.0245684342    5.3168705457
C       -1.6495026472    0.7141016747    4.0246766265
N       -1.9962017248    0.1229931820    1.7230323955
N       -2.6050123008    0.4693568708    2.9376916441
O       -1.9914776461    2.2908025819    0.9429441517
H       -1.2831019964    0.9754012999   -1.2717748955
H        0.1778840606    1.0948041328   -0.2907389918
H       -0.6987109000   -0.4537487483   -0.3861850512
H       -1.6951724621    1.2395233446    6.1258775824
H       -3.0507817704    1.8926544500    5.1800933765
H       -3.0197291545    0.1767132989    5.6333301531
H       -1.0388845753    1.5718638444    3.7275950153
H       -0.9670976574   -0.1426534754    4.1773852496
H       -1.4037618602   -0.7076687932    1.7128867065
H       -3.2680581299   -0.2630323647    3.1798975468
17   
torsion grid (-75,)
C       -1.6100668282    1.1064399657    0.8939303364
C       -0.8041919372    0.6372544200   -0.3085589748
C       -2.3892065350    1.0408087120    5.2866902434
C       -1.6702175141    0.7645747746    3.9691727966
N       -2.0800048521    0.0732178456    1.6928001151
N       -2.6482765449    0.3911696059    2.9390620434
O       -1.8305342076    2.2887190564    1.1143515426
H       -1.2032052736    1.1258499794   -1.2004340439
H        0.2335770355    0.9632871684   -0.1902008120
H       -0.8242746534   -0.4463809843   -0.4565051762
H       -1.6734737506    1.3518128235    6.0537428385
H       -3.1290953202    1.8356788236    5.1571093448
H       -2.9058802357    0.1470189296    5.6577985359
H       -1.1664149575    1.6687396275    3.6184690087
H       -0.9001298827   -0.0162010465    4.1107265956
H       -1.5194629414   -0.7793677441    1.6476138862
H       -3.2314045126   -0.3896366071    3.2270308901
17   
torsion grid (-60,)
C       -1.5562693393    1.0963533723    0.9389347215
C       -0.7916088281    0.6137069511   -0.2848707182
C       -2.3831767554    1.0246564364    5.2800879862
C       -1.6969675451    0.8477030974    3.9282217800
N       -2.1566925468    0.0788831528    1.6630087429
N       -2.6754012317    0.3573600325    2.9469650453
O       -1.6466369558    2.2829366889    1.2280496401
H       -1.1059811344    1.2124088576   -1.1427650880
H        0.2769021412    0.7929184786   -0.1308754382
H       -0.9474582320   -0.4448159478   -0.5122369562
H       -1.6774016462    1.4248397169    6.0142808102
H       -3.2243922210    1.7183931977    5.1932444656
H       -2.7621376165    0.0714151640    5.6696238565
H       -1.3256006391    1.8064486502    3.5634771106
H       -0.8325402513    0.1652448657    4.0253824780
H       -1.6760192251   -0.8166003292    1.5650455417
H       -3.1708808848   -0.4688670347    3.2672251920
17   
torsion grid (-45,)
C       -1.4828935659    1.0890785222    0.9656867422
C       -0.7767229348    0.5650365262   -0.2771010475
C       -2.3767405090    0.9805474408    5.2932071263
C       -1.7432719321    0.9616584585    3.9044903104
N       -2.2154783978    0.1313991928    1.6386866593
N       -2.6969775520    0.3630648875    2.9566667272
O       -1.4302118805    2.2702097389    1.2939779226
H       -1.0113014642    1.2308885637   -1.1107286239
H        0.3046800175    0.6068272334   -0.1147583158
H       -1.0572051305   -0.4569891477   -0.5482103572
H       -1.6975632116    1.4510622186    6.0104929142
H       -3.3127159999    1.5469116184    5.2811268090
H       -2.5925775645   -0.0323324014    5.6566336318
H       -1.5302701875    1.9743507520    3.5646580398
H       -0.7859129903    0.4102121132    3.9287400341
H       -1.8719316231   -0.8131953093    1.4737051756
H       -3.0751679851   -0.5157450575    3.2955254220
17   
torsion grid (-30,)
C       -1.0599564031    0.8875905723    1.0787721405
C       -0.8729844772    0.5412178529   -0.3946571878
C       -2.5321621064    1.0106075589    5.3097871995
C       -1.8147387656    1.1055882504    3.9644377745
N       -1.8773371717    0.0021179931    1.7435279954
N       -2.5236615742    0.2148282811    3.0180222183
O       -0.4901330863    1.8518508140    1.5835506684
H       -1.3289657896    1.3315833489   -0.9987822760
H        0.1975993034    0.5358483710   -0.6116935681
H       -1.3005600356   -0.4222297793   -0.6873773369
H       -2.0572557555    1.6804332766    6.0330939720
H       -3.5845857822    1.2946052939    5.2132924997
H       -2.4881052945   -0.0054419196    5.7224171597
H       -1.8515746048    2.1235624864    3.5812821359
H       -0.7559167650    0.8373791668    4.0725822246
H       -2.5062562743   -0.5138154335    1.1388925511
H       -2.5056683285   -0.7127407837    3.4456509994
17   
torsion grid (-15,)
C       -0.9617777221    0.7770413656    1.1199034506
C       -0.9179182822    0.5849807282   -0.3924958979
C       -2.5702639615    1.0454022676    5.2829025990
C       -1.8336062866    1.1146112765    3.9460936635
N       -1.8581219401   -0.0619734988    1.7481446789
N       -2.4525113818    0.1135678343    3.0489754743
O       -0.2282266405    1.5855777751    1.6818378455
H       -1.3665881624    1.4620183804   -0.8698110628
H        0.1283293812    0.5381407225   -0.7014372632
H       -1.4363150272   -0.3119571090   -0.7439375187
H       -2.1554181996    1.7841657619    5.9756297366
H       -3.6379441072    1.2479704718    5.1550527983
H       -2.4634200981    0.0587339006    5.7511247633
H       -1.9533252410    2.1020818911    3.4989650051
H       -0.7598530107    0.9519279283    4.0851082679
H       -2.5618625113   -0.4377213058    1.1221894901
H       -2.3234397201   -0.7915830400    3.5045531395
17   
torsion grid (0,)
C       -1.3227433231   -0.8884669335    1.5772690513
C       -0.7898311097   -1.1171260796    0.1679393620
C       -0.3712048070    1.1058077630    4.0779507626
C       -1.8214787204    0.6290093166    4.0869564051
N       -2.2123246516    0.1638474694    1.6622746655
N       -2.5206939716    0.9543829319    2.8218932154
O       -0.9942771127   -1.6097625757    2.5154377046
H        0.2117534260   -0.6801373673    0.0929514589
H       -0.7006987618   -2.1919883702    0.0025969352
H       -1.4186738690   -0.6808221132   -0.6138712883
H        0.0776419358    0.9548931302    5.0654643232
H        0.2272384086    0.5418089519    3.3586067045
H       -0.3161279305    2.1707791165    3.8292627198
H       -1.8721485806   -0.4324184657    4.3406542264
H       -2.3826738954    1.1939501661    4.8405052706
H       -2.1832552818    0.7748390978    0.8531133983
H       -3.5136986263    0.7901337568    2.9884848888
17   
torsion grid (15,)
C       -1.4156113769   -0.9113196436    1.5868041077
C       -0.7493032430   -1.0920528941    0.2292988673
C       -0.3734191591    1.1274609434    3.9795723832
C       -1.8060992826    0.6113627645    4.0845166857
N       -2.2190914743    0.2086852703    1.6677191861
N       -2.5855469740    0.9054445172    2.8598711964
O       -1.2566541875   -1.7155242962    2.5009357027
H        0.2888229544   -0.7493519247    0.2963909190
H       -0.7367121280   -2.1560078583   -0.0124525032
H       -1.2447348734   -0.5421323413   -0.5763091747
H        0.1438061592    0.9933729880    4.9351778176
H        0.1944650595    0.5772814005    3.2238840176
H       -0.3605852973    2.1917680405    3.7224874006
H       -1.8083666419   -0.4498415216    4.3446058345
H       -2.3356151029    1.1648164783    4.8687111623
H       -2.0846305451    0.8695187394    0.9103379195
H       -3.5539207583    0.6452491329    3.0459382819
17   
torsion grid (30,)
C       -1.4829386166   -0.9295385948    1.5735184223
C       -0.7426366200   -1.1068488769    0.2555123363
C       -0.3834605096    1.1854241425    3.9392281022
C       -1.7843364735    0.5983648489    4.0857363277
N       -2.1752788792    0.2589476410    1.6752244594
N       -2.6128307771    0.8601667908    2.8854662451
O       -1.4710152288   -1.7869665374    2.4523875612
H        0.3181089390   -0.8841813017    0.4120843790
H       -0.8244944463   -2.1506286721   -0.0520336661
H       -1.1187550126   -0.4617698561   -0.5439909231
H        0.1724533395    1.0672861693    4.8747506215
H        0.1846839112    0.6721832417    3.1570045112
H       -0.4289905543    2.2514334081    3.6928829085
H       -1.7251872030   -0.4653818246    4.3310567635
H       -2.3151215602    1.1132106095    4.8947317186
H       -1.9630436312    0.9551927914    0.9701062397
H       -3.5503535483    0.5018358156    3.0638237970
17   
torsion grid (45,)
C       -1.5253418269   -0.9598246572    1.5404876119
C       -0.7675535206   -1.1639702262    0.2378619873
C       -0.4104790288    1.3165693121    3.9606609789
C       -1.7431113551    0.5842579785    4.0905080362
N       -2.0862110170    0.2877506133    1.6900866052
N       -2.5999641641    0.8041154415    2.9017079167
O       -1.6426917302   -1.8508290797    2.3780502884
H        0.2983833037   -1.2621978301    0.4649029085
H       -1.0977219640   -2.1016648364   -0.2143120497
H       -0.9016205484   -0.3505009900   -0.4809108204
H        0.1664720972    1.2152234273    4.8853566165
H        0.1956031352    0.8991683884    3.1497329459
H       -0.5662227382    2.3822040666    3.7621008272
H       -1.5764874596   -0.4787837180    4.2896303469
H       -2.3152147344    1.0037257959    4.9257552313
H       -1.8350243336    1.0082797064    1.0251211458
H       -3.4960109862    0.3452064026    3.0607492274
17   
torsion grid (60,)
C       -1.5796011194   -1.0007496777    1.4875143432
C       -0.8197654856   -1.2492040450    0.1951447049
C       -0.4448642379    1.4664025586    4.0428224725
C       -1.6833626623    0.5757135316    4.0909749447
N       -1.9489276946    0.3034402958    1.7029905310
N       -2.5360400215    0.7745524449    2.8954819295
O       -1.8575079549   -1.9039971942    2.2741178127
H        0.2032433557   -1.5467973797    0.4438366132
H       -1.2884568783   -2.0832103883   -0.3320505733
H       -0.7830460819   -0.3790636339   -0.4666957646
H        0.1383266571    1.3559078583    4.9627775463
H        0.2062361889    1.1927487888    3.2057242744
H       -0.7248362489    2.5191203462    3.9317522497
H       -1.4006515202   -0.4751431319    4.2176015473
H       -2.3127782698    0.8594269053    4.9418062230
H       -1.6736999167    1.0252178812    1.0507146231
H       -3.3974649809    0.2443646351    3.0229763263
17   
torsion grid (75,)
C       -1.5894790753   -1.0394301970    1.4454853907
C       -0.8737800757   -1.3207521489    0.1360473128
C       -0.4923516362    1.6008185285    4.1236334896
C       -1.6324615205    0.5866768836    4.1081863401
N       -1.7842167516    0.2868458481    1.7339050174
N       -2.4623469904    0.7267982970    2.8889972690
O       -1.9767432915   -1.9342546583    2.1959460589
H        0.0333287663   -1.8916195443    0.3515089751
H       -1.5163954305   -1.9452948117   -0.4900471542
H       -0.6018149052   -0.4172612007   -0.4173751220
H        0.0810483462    1.5157501906    5.0525806937
H        0.1977315110    1.4278942941    3.2911381102
H       -0.8788661856    2.6221157259    4.0447374476
H       -1.2462045224   -0.4346173510    4.2130671108
H       -2.3110947931    0.7737496756    4.9478626706
H       -1.5744975424    1.0035099307    1.0524077578
H       -3.2750527742    0.1178003328    2.9894084361
17   
torsion grid (90,)
C       -1.6115642599   -1.0778677832    1.3978525004
C       -0.9221584677   -1.3599580368    0.0758476153
C       -0.5336783420    1.7025463790    4.1750863242
C       -1.5908635032    0.6028636823    4.1413317454
N       -1.6363846026    0.2416987437    1.7800729574
N       -2.3924956582    0.6599646158    2.8985417649
O       -2.1142513625   -1.9629970191    2.0890232521
H       -0.1375379083   -2.1017699283    0.2445435217
H       -1.6475195591   -1.7976571491   -0.6156938598
H       -0.4794812994   -0.4710030320   -0.3825057085
H        0.0189471378    1.6727627736    5.1199709306
H        0.1890974985    1.5751398118    3.3625584211
H       -0.9973480497    2.6891262687    4.0735916630
H       -1.1261334769   -0.3841302452    4.2696632957
H       -2.3040211945    0.7433286513    4.9613272920
H       -1.4651232137    0.9632772114    1.0911898790
H       -3.1526806098   -0.0165951489    2.9850882093
17   
torsion grid (105,)
C       -1.6539569510   -1.1181151341    1.3438890956
C       -0.9578445430   -1.3760070808    0.0214482965
C       -0.5737644912    1.7886493718    4.1905213138
C       -1.5565655369    0.6212555215    4.1845169001
N       -1.5239489325    0.1580366676    1.8411041839
N       -2.3338797265    0.5712511371    2.9283528883
O       -2.2877629627   -1.9861956227    1.9438395675
H       -0.3045010431   -2.2443675043    0.1358687628
H       -1.7097019346   -1.6251698026   -0.7329622593
H       -0.3647932787   -0.5265229561   -0.3290843509
H       -0.0515498235    1.8445983060    5.1513528339
H        0.1828180918    1.6685483466    3.4080902963
H       -1.0977105802    2.7353662072    4.0235095691
H       -1.0269337094   -0.3255099879    4.3647614166
H       -2.2929728278    0.7489911780    4.9858131329
H       -1.3052657140    0.9008644608    1.1875702552
H       -3.0448629077   -0.1569433130    3.0188979017
17   
torsion grid (120,)
C       -1.6985851251   -1.1486253261    1.2923330394
C       -0.9841072838   -1.3754809603   -0.0252308391
C       -0.6130513551    1.8580762624    4.1814848925
C       -1.5295193876    0.6380435751    4.2284627368
N       -1.4286241559    0.0505688114    1.9128625339
N       -2.2811723604    0.4723082827    2.9697725216
O       -2.4570265935   -1.9805992639    1.7913273302
H       -0.4633718004   -2.3349138646    0.0212166854
H       -1.7272188152   -1.4410251095   -0.8254917224
H       -0.2639147928   -0.5888955628   -0.2676827298
H       -0.1224887487    2.0056174485    5.1492081113
H        0.1731826771    1.7326966045    3.4294151797
H       -1.1841849800    2.7603744871    3.9398804851
H       -0.9477251059   -0.2637119204    4.4726550645
H       -2.2847321567    0.7709697321    5.0110755582
H       -1.1371388840    0.8134537353    1.3115165311
H       -2.9535180029   -0.2901271365    3.0746844256
17   
torsion grid (135,)
C       -1.7458898804   -1.1646168733    1.2448957713
C       -1.0026754698   -1.3619963516   -0.0611798925
C       -0.6537222195    1.9145600713    4.1510306379
C       -1.5019026490    0.6493971754    4.2668664816
N       -1.3517304953   -0.0751695775    1.9911602849
N       -2.2347283847    0.3675368334    3.0212853152
O       -2.6214089684   -1.9362874289    1.6379866171
H       -0.6198417488   -2.3847969528   -0.0948379463
H       -1.7060798829   -1.2447557011   -0.8910876007
H       -0.1713363864   -0.6639704797   -0.1947145913
H       -0.1934180929    2.1552617373    5.1148211593
H        0.1571744353    1.7868839500    3.4255405824
H       -1.2699171120    2.7636471841    3.8380338192
H       -0.8712510588   -0.2008378524    4.5702310936
H       -2.2680715699    0.7896640686    5.0372497841
H       -0.9698679443    0.6988245621    1.4572830380
H       -2.8785294433   -0.4146145700    3.1529252501
17   
torsion grid (150,)
C       -1.7895531145   -1.1657292269    1.2062345940
C       -1.0102729433   -1.3306751098   -0.0836137158
C       -0.6934103519    1.9524315406    4.0942687222
C       -1.4795367574    0.6573203023    4.2978588776
N       -1.2995154904   -0.2135690458    2.0755173737
N       -2.2028136246    0.2576363935    3.0825744933
O       -2.7647313260   -1.8604549877    1.4914211856
H       -0.7617950826   -2.3868840881   -0.2118978351
H       -1.6486070917   -1.0368477668   -0.9225322444
H       -0.0899625652   -0.7402709646   -0.1108978447
H       -0.2603815062    2.2870573666    5.0424311419
H        0.1368875978    1.8169445533    3.3919946526
H       -1.3469999701    2.7428796317    3.7117390898
H       -0.8070120196   -0.1377799690    4.6575895978
H       -2.2488094567    0.8150751735    5.0613867827
H       -0.8164117257    0.5569224463    1.6244524150
H       -2.8202714427   -0.5353264539    3.2589625178
17   
torsion grid (165,)
C       -1.8404323127   -1.1422897640    1.1686715330
C       -1.0055427499   -1.2940016511   -0.0889554435
C       -0.7397694070    1.9804993422    4.0208943566
C       -1.4495448849    0.6581182278    4.3162841275
N       -1.2795269896   -0.3582999320    2.1567192467
N       -2.1848931319    0.1545094838    3.1489838588
O       -2.9116928387   -1.7224426902    1.3341700255
H       -0.8855542932   -2.3577908026   -0.3075971011
H       -1.5463968706   -0.8431717360   -0.9267378413
H       -0.0174190032   -0.8312268712   -0.0118064216
H       -0.3070137829    2.3905007894    4.9390449034
H        0.0849581214    1.8573265051    3.3091662206
H       -1.4443465597    2.7101387371    3.6100939821
H       -0.7273198022   -0.0793905364    4.7027038791
H       -2.2048787940    0.8212911911    5.0920154034
H       -0.6694294112    0.3750102453    1.8104228353
H       -2.7743941607   -0.6400507433    3.3934162395
17   
torsion grid (180,)
C       -1.7452248604    1.1020759791    0.6298786189
C       -0.8968572933    0.5349039509   -0.4975436315
C       -2.5146764996    0.8807234879    5.4110181963
C       -1.5965694441    0.5454185904    4.2384522035
N       -1.3599254044    0.6951941729    1.8907863761
N       -2.1628417814    1.0652597958    2.9957827987
O       -2.6814850746    1.8674716496    0.4317836692
H       -1.5296017598   -0.0727099057   -1.1508177218
H       -0.5157883661    1.3691293038   -1.0920902513
H       -0.0516600186   -0.0669828799   -0.1512575746
H       -2.0795807598    0.5231289607    6.3490455119
H       -2.6638064310    1.9615702750    5.4837206304
H       -3.4964905277    0.4066703358    5.2968231868
H       -0.6170972148    1.0152411947    4.3783290168
H       -1.4289529098   -0.5490831851    4.1983099550
H       -0.9041030860   -0.2160925818    1.9480163181
H       -3.1076014797    0.7010662062    2.8525618676
