19   
torsion grid (-165,)
C        0.3753738166   -0.6795470727   -1.5275161964
C        0.3109458726    0.5055489737   -2.3384073711
C       -0.4081646574    0.3197188888   -3.4984720962
C       -0.2845741748   -1.7347486674   -2.0922040122
C        2.3676886255    1.8463781318   -1.4562675397
C        2.0238099872    2.4216572233   -2.8120639951
C        0.9366208082    1.8056649266   -1.9514957769
C       -0.6780502546    1.3142609576   -4.5923847400
S       -1.0078001225   -1.3169397006   -3.6170035482
Br      -0.4532767706   -3.4862563900   -1.3881020122
H        0.8914974724   -0.7333033099   -0.5754116874
H        2.9171554626    0.9098063049   -1.4354104999
H        2.6100629225    2.5326331790   -0.6502491754
H        2.0310879375    3.5008339176   -2.9346558482
H        2.3430200927    1.8622655445   -3.6863171882
H        0.2609160594    2.5153479324   -1.4761521393
H        0.2133815148    1.4759731027   -5.2095269184
H       -1.4826569564    0.9808927124   -5.2534845870
H       -0.9657789482    2.2819761084   -4.1712138606
19   
torsion grid (-150,)
C        0.0835146620   -0.5927227806   -1.3528815055
C        0.0952212240    0.5229595333   -2.2603879243
C       -0.6397939688    0.2878330336   -3.4011851285
C       -0.6465388244   -1.6454958691   -1.8269114484
C        2.2568896656    1.7766624951   -1.5163220858
C        1.9158566201    2.2884998181   -2.8976997027
C        0.8132333931    1.8025707247   -1.9764269133
C       -0.8461205169    1.1961858624   -4.5798587929
S       -1.3462862996   -1.3115262703   -3.3835528519
Br      -0.9273231597   -3.3165627118   -0.9781840240
H        0.5995490199   -0.6001182375   -0.3992799582
H        2.7421931984    0.8075254434   -1.4472177447
H        2.5656381912    2.4937997056   -0.7615189758
H        1.9915842067    3.3552168333   -3.0880522680
H        2.1716056115    1.6567097542   -3.7430388593
H        0.1983449871    2.5835883946   -1.5314285037
H       -0.0714507872    1.0476445366   -5.3414278713
H       -1.8160237962    1.0260868724   -5.0564503326
H       -0.8035820163    2.2413855921   -4.2633893433
19   
torsion grid (-135,)
C        0.1349938403   -0.6245482500   -1.3934904723
C        0.1261295236    0.5053077721   -2.2849142131
C       -0.5970995169    0.2717583268   -3.4333691012
C       -0.5688818823   -1.6848138687   -1.8880574017
C        2.2575611269    1.7820907936   -1.4986020056
C        1.9172807780    2.3222831715   -2.8690221155
C        0.8167833259    1.7929127008   -1.9687560943
C       -0.8219351609    1.1880094473   -4.6015454307
S       -1.2707647477   -1.3431703844   -3.4428659165
Br      -0.8206954966   -3.3729978315   -1.0648487491
H        0.6454913054   -0.6342368319   -0.4369327616
H        2.7602590280    0.8205807474   -1.4503727047
H        2.5475454397    2.4854125993   -0.7236377351
H        1.9748141263    3.3948019521   -3.0313830200
H        2.1902769406    1.7169079155   -3.7282006843
H        0.1847886059    2.5508195388   -1.5084638580
H       -0.2155813245    0.8934310772   -5.4667156236
H       -1.8696085446    1.1899325723   -4.9192825206
H       -0.5470877371    2.2095818974   -4.3319251837
19   
torsion grid (-120,)
C        0.6804674254   -0.9095039774   -1.8292285296
C        0.4650863854    0.3344129366   -2.5210327654
C       -0.2249328906    0.1743558565   -3.7022620806
C        0.1593276131   -1.9776638624   -2.5006369127
C        2.3561410653    1.8021950475   -1.4910700983
C        1.9185577540    2.5000746586   -2.7587681496
C        0.9307542993    1.6489826800   -1.9822598769
C       -0.6541653331    1.2202770848   -4.6898530022
S       -0.6124689952   -1.5087158667   -3.9877383689
Br       0.2220442206   -3.7978424780   -1.9769186142
H        1.2035421076   -0.9902405915   -0.8829029638
H        3.0152320819    0.9451857672   -1.5944754048
H        2.5292014098    2.4037035838   -0.6036377260
H        1.7923896358    3.5788134002   -2.7381370078
H        2.2839902281    2.1020673431   -3.7007301225
H        0.1837563864    2.2022203410   -1.4152805418
H       -0.2118380019    1.0512358256   -5.6783176309
H       -1.7426597624    1.2357195404   -4.8137198958
H       -0.3403757803    2.2065455516   -4.3428859715
19   
torsion grid (-105,)
C        0.5576119651   -0.8419889867   -1.7243939000
C        0.3786159703    0.3737517758   -2.4724805679
C       -0.3271291429    0.1814253578   -3.6399298012
C       -0.0096937446   -1.9219845798   -2.3383687165
C        2.2712035418    1.8235945635   -1.4129323123
C        1.9893570863    2.4144049502   -2.7758471299
C        0.8861370336    1.7022538897   -2.0122593886
C       -0.7485293700    1.2031983942   -4.6552888350
S       -0.7769010271   -1.4971088308   -3.8403377457
Br       0.0074087795   -3.7185487281   -1.7352553771
H        1.0878491048   -0.8977167643   -0.7803809617
H        2.8823345556    0.9266252673   -1.3749584544
H        2.4080647787    2.5007398646   -0.5751132630
H        1.9319041181    3.4951562051   -2.8692051391
H        2.4032115722    1.9025594127   -3.6396294590
H        0.1314479519    2.3541644024   -1.5754076829
H       -0.5472548119    0.8691638087   -5.6779891319
H       -1.8201168234    1.4228206973   -4.5818772602
H       -0.2035127129    2.1359148009   -4.4896154597
19   
torsion grid (-90,)
C        0.5016141437   -0.8232223655   -1.6882374805
C        0.3426205587    0.3825025100   -2.4560781786
C       -0.3538355113    0.1804336364   -3.6275959205
C       -0.0715343471   -1.9058076296   -2.2930347290
C        2.2376641371    1.8329866575   -1.4012017116
C        1.9765396171    2.4000309926   -2.7785273083
C        0.8581886571    1.7132022402   -2.0132846838
C       -0.7579665187    1.1966254846   -4.6560278297
S       -0.8233730542   -1.4940217913   -3.8060889078
Br      -0.0911170540   -3.6911822764   -1.6578491564
H        1.0200077309   -0.8705120882   -0.7371456032
H        2.8395161959    0.9310620370   -1.3396750784
H        2.3721465351    2.5247896922   -0.5750321726
H        1.9310761677    3.4791993628   -2.8937497366
H        2.3983116250    1.8671751202   -3.6256815100
H        0.1054216231    2.3809797214   -1.5976632491
H       -0.7979159397    0.7670624633   -5.6615251313
H       -1.7448767521    1.6203849031   -4.4341184285
H       -0.0403750528    2.0211792152   -4.6658660267
19   
torsion grid (-75,)
C        0.7134434651   -0.8827825624   -1.8250906197
C        0.4702354611    0.3508495848   -2.5209659226
C       -0.2237651496    0.1704392163   -3.6975318819
C        0.2021176784   -1.9642304203   -2.4867623094
C        2.2445760805    1.8691269268   -1.3516614424
C        2.0092168627    2.4535184209   -2.7266037813
C        0.8994931061    1.6911487202   -2.0214010920
C       -0.6905354530    1.2240232386   -4.6604607137
S       -0.5897595968   -1.5156584603   -3.9678495531
Br       0.3076427658   -3.7809011330   -1.9572688081
H        1.2430296934   -0.9522185053   -0.8815938125
H        2.8923285175    1.0000574262   -1.2842301184
H        2.3088166433    2.5477555856   -0.5063618514
H        1.9101984953    3.5310548966   -2.8212601392
H        2.4907061132    1.9625398095   -3.5672425530
H        0.0958926519    2.3107759773   -1.6265157308
H       -0.9691425610    0.7981914893   -5.6282083778
H       -1.5619471684    1.7615351801   -4.2680350542
H        0.1007949322    1.9611318361   -4.8287385178
19   
torsion grid (-60,)
C        0.6408096777   -0.8746950747   -1.7787706822
C        0.4186224157    0.3528288988   -2.4916387329
C       -0.2669068816    0.1665343556   -3.6720447049
C        0.1267899909   -1.9595247967   -2.4332480052
C        2.2143667964    1.8695355787   -1.3537737988
C        1.9663781638    2.4435357968   -2.7310633399
C        0.8606041905    1.6943999267   -2.0072351467
C       -0.6834287270    1.2110970154   -4.6684320619
S       -0.6460285959   -1.5186600749   -3.9264107023
Br       0.1937410148   -3.7691470074   -1.8736614859
H        1.1566492041   -0.9375652278   -0.8272201431
H        2.8567616323    0.9965292011   -1.2858826529
H        2.2921326789    2.5548956185   -0.5150290787
H        1.8729895576    3.5206822055   -2.8348915008
H        2.4367825433    1.9425159046   -3.5720250190
H        0.0649389245    2.3210325884   -1.6070082549
H       -1.2091520030    0.7745257180   -5.5216488371
H       -1.3478626519    1.9497707416   -4.2067087626
H        0.1892545513    1.7523016885   -5.0498727513
19   
torsion grid (-45,)
C        1.3335154315   -0.9455589157   -2.2240664363
C        0.8870029895    0.3397398327   -2.6872510529
C        0.2488692692    0.2753179955   -3.9062934678
C        1.0340932186   -1.9494061475   -3.1019517037
C        2.4190299833    1.9369096514   -1.3053705341
C        1.9153316775    2.7336851111   -2.4881394045
C        1.0738686816    1.6067818070   -1.9184168731
C       -0.3347302547    1.4046077431   -4.7078974152
S        0.1962388781   -1.3638163597   -4.5082255913
Br       1.4366486391   -3.7916333580   -2.9118172387
H        1.8517375958   -1.1033073071   -1.2847553876
H        3.2343485267    1.2415222639   -1.4820100185
H        2.4327103089    2.4134088671   -0.3296123827
H        1.5845674017    3.7549256208   -2.3226974578
H        2.3950973055    2.5602394477   -3.4467500420
H        0.2086751844    1.9208063833   -1.3361920171
H       -1.0002637477    1.0402539209   -5.4952897733
H       -0.9130961782    2.0743453402   -4.0645949287
H        0.4515142216    2.0014276192   -5.1844021564
19   
torsion grid (-30,)
C        2.6025400781   -0.5548732664   -3.1443816480
C        1.7055365768    0.5691745714   -3.1307288681
C        1.0136361479    0.7124204706   -4.3129162008
C        2.5780164703   -1.2281500405   -4.3328203198
C        2.7492431338    2.0291896929   -1.2390752709
C        1.8618844834    2.9454301940   -2.0512962621
C        1.5340535251    1.4677590688   -1.9489241983
C        0.0174665998    1.7733761113   -4.6852964810
S        1.4615785871   -0.5239216101   -5.4651489144
Br       3.5949875244   -2.7571921413   -4.8011198013
H        3.2303848132   -0.8366580702   -2.3064610678
H        3.7251083183    1.7852747813   -1.6485861349
H        2.7180217556    2.1066199594   -0.1563204169
H        1.2241671758    3.6496052889   -1.5247046210
H        2.2478832057    3.3037016135   -3.0009520240
H        0.6925241284    1.2201364276   -1.3035375867
H       -0.7297134509    1.3969753360   -5.3901541366
H       -0.5081743344    2.1266331639   -3.7948521460
H        0.5064454084    2.6383231162   -5.1496782131
19   
torsion grid (-15,)
C        2.6473051709   -0.5162900129   -3.1823295871
C        1.7314829865    0.5932161478   -3.1570654873
C        1.0480269718    0.7468448390   -4.3429399006
C        2.6435937650   -1.1684832869   -4.3820377616
C        2.7429735289    2.0170966020   -1.2218856906
C        1.8549704648    2.9460325192   -2.0184619622
C        1.5391780668    1.4631301699   -1.9565405189
C        0.0279994151    1.7868474631   -4.7069955445
S        1.5274657522   -0.4616574151   -5.5137429427
Br       3.6928121708   -2.6692581047   -4.8696014697
H        3.2730819598   -0.8016592089   -2.3441112948
H        3.7245899532    1.7924340305   -1.6286672245
H        2.7016610142    2.0669180347   -0.1378627286
H        1.2066460528    3.6308351095   -1.4793132103
H        2.2449818363    3.3311175125   -2.9559259801
H        0.6942941081    1.1923342574   -1.3252282297
H       -0.8401314613    1.3439006446   -5.2059546920
H       -0.3253149414    2.2921220914   -3.8057810982
H        0.4453767991    2.5456386613   -5.3796008355
19   
torsion grid (0,)
C        2.6019460572   -0.5430411802   -3.1519165062
C        1.7033924837    0.5814799288   -3.1466077906
C        1.0375926691    0.7345588977   -4.3425330018
C        2.6032107165   -1.2064024268   -4.3450747454
C        2.7176035239    1.9933250601   -1.2047080747
C        1.8567085124    2.9371030033   -2.0133014688
C        1.5122621986    1.4601110541   -1.9520577489
C        0.0235082926    1.7733500175   -4.7242273773
S        1.5107299928   -0.4938983743   -5.4963346089
Br       3.6357020946   -2.7271243834   -4.8060174246
H        3.2133404120   -0.8297328242   -2.3036418306
H        3.6994007167    1.7498789576   -1.6001256514
H        2.6650151211    2.0463026204   -0.1213260173
H        1.2153535711    3.6350799731   -1.4827291768
H        2.2657836046    3.3129085313   -2.9464079129
H        0.6554986106    1.2073688034   -1.3295358890
H       -0.9394461659    1.3203385250   -4.9867557072
H       -0.1447019255    2.4507913801   -3.8847694575
H        0.3546459270    2.3674825647   -5.5829852582
19   
torsion grid (15,)
C        2.6573396499   -0.4952634303   -3.1955758258
C        1.7361242718    0.6101788508   -3.1758586182
C        1.0731252132    0.7719800715   -4.3724833301
C        2.6761798983   -1.1372651947   -4.4005738709
C        2.7003147538    1.9724498532   -1.1725484927
C        1.8745920500    2.9401192446   -1.9898087132
C        1.5164530095    1.4644834018   -1.9690869923
C        0.0207539024    1.7807967136   -4.7297200304
S        1.5750394446   -0.4264520488   -5.5442797969
Br       3.7435612435   -2.6264595123   -4.8844263373
H        3.2712976159   -0.7845049037   -2.3500168950
H        3.6929010969    1.7296336307   -1.5404443656
H        2.6128118006    2.0045975819   -0.0906224480
H        1.2218858405    3.6331724703   -1.4666729417
H        2.3187759026    3.3304008444   -2.9007194407
H        0.6366873642    1.2093117114   -1.3807188343
H       -0.9781466910    1.3293447009   -4.7555242886
H        0.0071557235    2.5798132657   -3.9852828836
H        0.2054496075    2.2311801498   -5.7105700954
19   
torsion grid (30,)
C        3.2274035861   -0.1724863729   -3.8352358698
C        2.1682688224    0.7529820126   -3.5345051209
C        1.2964226521    0.9249767271   -4.5874545207
C        3.1364280246   -0.6770310044   -5.1014379390
C        3.2314363063    2.0356167833   -1.5270854542
C        2.1618570177    2.9396511813   -2.0976720242
C        2.0232248064    1.4314416084   -2.2111517846
C        0.0450156096    1.7530330218   -4.6346101366
S        1.7637523890   -0.0472578394   -5.9634645628
Br       4.3215293155   -1.9013766062   -5.9310780998
H        4.0141963636   -0.4374134668   -3.1378317361
H        4.1800489341    1.9919368021   -2.0541163966
H        3.3075809277    1.9429671504   -0.4477893013
H        1.5059888822    3.4642726502   -1.4088084406
H        2.4030618418    3.4860009039   -3.0047557007
H        1.2882056660    0.9833353629   -1.5444999278
H       -0.8304747530    1.1731223456   -4.3186874496
H        0.1379355208    2.6096640536   -3.9622763376
H       -0.1546161258    2.1321944950   -5.6415166356
19   
torsion grid (45,)
C        3.2913420754   -0.0827163732   -3.8908975388
C        2.2011822829    0.7939155651   -3.5604819905
C        1.3195253278    0.9620104077   -4.6056600018
C        3.2144169047   -0.5544813819   -5.1715032547
C        3.2185069079    2.0016370408   -1.4813476134
C        2.1903590359    2.9414694551   -2.0702932629
C        2.0264179064    1.4385924850   -2.2246644662
C        0.0525176919    1.7682937661   -4.6210762727
S        1.8139647991    0.0460335750   -6.0082951495
Br       4.4314725877   -1.7236083878   -6.0341509202
H        4.0870946681   -0.3441863086   -3.2025197064
H        4.1862393333    1.9515687183   -1.9716859440
H        3.2510305715    1.8823160986   -0.4024815877
H        1.5186639096    3.4637023965   -1.3950748063
H        2.4770743123    3.5026274756   -2.9548557453
H        1.2551252455    0.9930187421   -1.5985024857
H       -0.7476928969    1.2652301317   -4.0655290329
H        0.2178015071    2.7443074502   -4.1549241914
H       -0.3076594531    1.9385406964   -5.6396118100
19   
torsion grid (60,)
C        2.9173704729   -0.4709465193   -3.5842068269
C        1.9430693030    0.5690226395   -3.4007350792
C        1.0872363376    0.6920131346   -4.4732466110
C        2.7832436188   -1.1056361972   -4.7878108192
C        3.0954315198    1.9391784584   -1.4997056831
C        2.1898506460    2.8970036959   -2.2415469609
C        1.8459334251    1.4186301220   -2.1765696002
C       -0.0514955492    1.6588276269   -4.6338362810
S        1.4664799944   -0.4650811506   -5.7243821915
Br       3.8459436993   -2.5260951205   -5.4549808167
H        3.6741668214   -0.7281144898   -2.8516399733
H        4.0513548111    1.7015568199   -1.9570646176
H        3.1102492864    1.9782282097   -0.4145716830
H        1.5842362712    3.5900724081   -1.6648008660
H        2.5445307287    3.2825595867   -3.1928856217
H        1.0245215569    1.1653957054   -1.5079981465
H       -0.7912209449    1.5308014516   -3.8358410993
H        0.3074900050    2.6925543038   -4.5860287801
H       -0.5659583317    1.5251924347   -5.5890797187
19   
torsion grid (75,)
C        2.1195018933   -0.9659949823   -2.9065448371
C        1.4172150867    0.2801077867   -3.0480411723
C        0.6106609206    0.3152117639   -4.1641202542
C        1.8376115419   -1.8415722294   -3.9173726065
C        2.8908054352    1.8539186611   -1.5780306487
C        2.1067880192    2.7436589661   -2.5168082111
C        1.5316223153    1.4099522533   -2.0776731549
C       -0.2620688702    1.4408971803   -4.6433512801
S        0.7093324585   -1.1795144935   -5.0625970110
Br       2.5389324587   -3.5873767539   -4.1466073802
H        2.7990244118   -1.1882240563   -2.0913319660
H        3.7628313407    1.3474949855   -1.9812732789
H        2.9802759034    2.1522685702   -0.5376973873
H        1.6600235597    3.6506374870   -2.1198920297
H        2.4581113052    2.8200914734   -3.5414954388
H        0.7260374086    1.4691175702   -1.3470857962
H       -0.8182446097    1.8770502102   -3.8086645430
H        0.3346338289    2.2415941252   -5.0956001741
H       -0.9864035728    1.1034639634   -5.3900578399
19   
torsion grid (90,)
C        2.0652575206   -0.9901135160   -2.8587077138
C        1.3805007995    0.2637099888   -3.0238915251
C        0.5918693945    0.2957416034   -4.1526708646
C        1.7909304852   -1.8720469446   -3.8651932066
C        2.8682412842    1.8469750390   -1.5821600273
C        2.0634285188    2.7338046801   -2.5054403368
C        1.5017422321    1.3974367671   -2.0577266601
C       -0.2454999231    1.4288341587   -4.6737161934
S        0.6895159294   -1.2095298562   -5.0367894731
Br       2.4748827582   -3.6281954606   -4.0647787290
H        2.7280694337   -1.2114739654   -2.0296252246
H        3.7346442042    1.3437423513   -2.0012225744
H        2.9751229053    2.1450690187   -0.5433967173
H        1.6201788347    3.6382009030   -2.0987088799
H        2.3935243217    2.8130315442   -3.5369097366
H        0.7099350229    1.4505226709   -1.3119162592
H       -0.5842294965    2.0569755807   -3.8459667149
H        0.3253882340    2.0676712941   -5.3583786848
H       -1.1292197487    1.0690198430   -5.2084762026
19   
torsion grid (105,)
C        2.4453227068   -0.8270716760   -3.2297413155
C        1.6262551460    0.3560683629   -3.2236057727
C        0.8209147264    0.4520162527   -4.3367830454
C        2.2514033048   -1.5911816067   -4.3445817434
C        2.9661582831    1.8669314810   -1.5746490771
C        2.0642102505    2.7891440002   -2.3632872223
C        1.6450271216    1.3530186966   -2.1097627213
C       -0.1497953555    1.5384724128   -4.6998985823
S        1.0653904289   -0.9037354718   -5.4156537247
Br       3.1166774698   -3.2204394128   -4.7784159615
H        3.1414906469   -1.0829010576   -2.4388499280
H        3.8721892874    1.5182383653   -2.0615510999
H        3.0581009256    2.0242773601   -0.5041206302
H        1.5380082941    3.5774322246   -1.8325340761
H        2.3696645349    3.0458423922   -3.3732775902
H        0.8625450348    1.2213688245   -1.3640099688
H       -0.3437224787    2.1677280733   -3.8288854403
H        0.2436177083    2.1820314742   -5.4959355008
H       -1.1060552045    1.1309688587   -5.0435250261
19   
torsion grid (120,)
C        1.9477321441   -1.0187330924   -2.7539248732
C        1.3091919915    0.2512035904   -2.9816209624
C        0.5600218556    0.2710288367   -4.1372233033
C        1.6762452475   -1.9240102821   -3.7388637771
C        2.8132442082    1.8211480381   -1.5448586563
C        2.0500215104    2.7157387649   -2.4950075738
C        1.4425454145    1.4025351122   -2.0372438993
C       -0.2617650962    1.3910125416   -4.7062681535
S        0.6351029897   -1.2676805261   -4.9686061753
Br       2.3136296511   -3.7044258357   -3.8618958446
H        2.5790913231   -1.2311716950   -1.8984050874
H        3.6715160743    1.2871508200   -1.9420714176
H        2.9114171375    2.1320664047   -0.5090065588
H        1.6262700706    3.6384092373   -2.1088241465
H        2.4003275916    2.7698840084   -3.5214571083
H        0.6412229035    1.4898067743   -1.3052540871
H       -0.1963045929    2.2643199319   -4.0545798190
H        0.0863474714    1.6846531480   -5.7031547286
H       -1.3179587779    1.1129055111   -4.7930243859
19   
torsion grid (135,)
C        1.5109755497   -1.0566862896   -2.3492770853
C        1.0340030267    0.2338318726   -2.7715330547
C        0.3018540607    0.1756548959   -3.9369963698
C        1.1360711823   -2.0563771342   -3.2003056620
C        2.6905560730    1.7895260287   -1.4936746534
C        2.1018351328    2.6194842521   -2.6120133011
C        1.2954359534    1.4875704903   -2.0007069573
C       -0.3955574766    1.2893211626   -4.6624762123
S        0.1916115094   -1.4648404334   -4.5360004363
Br       1.5563984529   -3.8985221952   -3.0544809163
H        2.1071711350   -1.2173670756   -1.4580173313
H        3.4798940376    1.0903854387   -1.7538907043
H        2.7909447627    2.2425054630   -0.5118367528
H        1.7990335432    3.6398541709   -2.3948423010
H        2.4981681409    2.4638472114   -3.6110435013
H        0.4860256251    1.7977547993   -1.3418753258
H       -0.0421386288    2.2526236040   -4.2887769346
H       -0.2107475123    1.2520783832   -5.7412403731
H       -1.4807515095    1.2486787134   -4.5115772910
19   
torsion grid (150,)
C        1.1600971000   -1.0190789454   -2.0638607810
C        0.8099224428    0.2580560126   -2.6252210804
C        0.0778678023    0.1464799718   -3.7871173097
C        0.6902797825   -2.0634656708   -2.8085020352
C        2.5847579922    1.7771602648   -1.4649608834
C        2.1271519680    2.5175184076   -2.7016096338
C        1.1829440371    1.5605462595   -1.9951260726
C       -0.5202953927    1.2428866984   -4.6201307895
S       -0.1916793773   -1.5288714988   -4.2087397527
Br       0.9321559626   -3.9114974701   -2.4649345508
H        1.7372309171   -1.1411497055   -1.1541175680
H        3.3021817619    0.9734315634   -1.6022563738
H        2.7015953953    2.3368349968   -0.5417267656
H        1.9303103008    3.5829273584   -2.6234984673
H        2.5376538232    2.1974594408   -3.6547802782
H        0.3902003441    2.0343675802   -1.4184551085
H        0.0793622685    2.1520116986   -4.5301486699
H       -0.5737401039    0.9688800678   -5.6781616354
H       -1.5386255118    1.4822473400   -4.2903841789
19   
torsion grid (165,)
C        0.8525310283   -0.9490593257   -1.8465751638
C        0.6052259081    0.2989271192   -2.5153807455
C       -0.1343084888    0.1482771061   -3.6682014719
C        0.2996433754   -2.0122215724   -2.5039630720
C        2.4755479417    1.7741381531   -1.4481999029
C        2.1215513050    2.4126451681   -2.7727747480
C        1.0764238812    1.6212219767   -2.0053562007
C       -0.6293505968    1.2207664402   -4.5958617254
S       -0.5381474003   -1.5280168653   -3.9481556405
Br       0.3916025113   -3.8379346399   -2.0035839144
H        1.4167454256   -1.0403380127   -0.9251975626
H        3.1236762182    0.9030254363   -1.4725116977
H        2.6145971581    2.4183989555   -0.5851511211
H        2.0171614684    3.4929597667   -2.8156489134
H        2.5296474951    1.9567727509   -3.6700854489
H        0.3119177350    2.2214255485   -1.5144146761
H        0.1598438583    1.9534998355   -4.7883275840
H       -0.9572652138    0.8105431600   -5.5550197777
H       -1.4791030023    1.7591125877   -4.1593172403
19   
torsion grid (180,)
C        0.9334560936   -0.9680448993   -1.9045909178
C        0.6438721923    0.2890664306   -2.5372944974
C       -0.0990661087    0.1492715837   -3.6890034798
C        0.4112354205   -2.0292043337   -2.5905843260
C        2.4621692245    1.7905544659   -1.4156352261
C        2.1233624493    2.4320269023   -2.7428997792
C        1.0787168699    1.6139090219   -2.0032109197
C       -0.5938207533    1.2335287574   -4.6039913133
S       -0.4504977700   -1.5294286995   -4.0150564913
Br       0.5519254603   -3.8640217170   -2.1364637293
H        1.5007907198   -1.0679775326   -0.9860598203
H        3.1287037276    0.9332937343   -1.4320240581
H        2.5697423729    2.4308277208   -0.5451571163
H        1.9975966260    3.5102205482   -2.7806790828
H        2.5582957758    1.9912136355   -3.6350980832
H        0.2913757535    2.1951511452   -1.5255422388
H        0.2429679562    1.8140558999   -5.0071254577
H       -1.1611904982    0.8283017511   -5.4460095059
H       -1.2469935746    1.9304241938   -4.0672803584
