30   
torsion grid (-165,)
C        1.0166383813   -3.3037564481    4.5674103746
C        3.9439716346   -1.5469542717    6.0497515567
C        4.1200501910   -2.9562038271    5.5224343571
C        0.5981452881   -1.9549349084    0.7956755385
C       -1.7070079933   -1.4596219018    1.3401605070
C        1.0358432856   -1.3871674423    2.1508665791
C       -1.2555833880   -0.8870936329    2.6887682665
C        2.7890679226   -2.5198328783    6.0830284860
C       -0.1718461078   -2.8345797090    3.7198209104
N       -0.6271845687   -1.2697457902    0.3639969540
N       -0.0048986607   -1.4761387832    3.1967024667
N        1.6980745961   -2.2942780944    5.1805904644
O        1.2839805306   -4.4969821757    4.6941017518
H        4.4079465275   -1.2792253920    6.9942273567
H        3.8959311941   -0.7408381043    5.3227324809
H        4.1736988443   -3.0926165585    4.4476290980
H        4.7018230737   -3.6638978836    6.1043019714
H        1.3871708629   -1.7702080668    0.0586103537
H        0.4687376158   -3.0492310539    0.8719446506
H       -1.9914405672   -2.5208563982    1.4611239365
H       -2.5952249203   -0.9175970198    0.9972440899
H        1.9374525327   -1.8973667519    2.5008537468
H        1.2803986615   -0.3265863243    2.0200152702
H       -1.0889776534    0.1896589159    2.5668064800
H       -2.0392254568   -1.0214705842    3.4417091080
H        2.5076352904   -2.9337025810    7.0491145660
H       -0.3289628559   -3.6121180973    2.9605335862
H       -1.0533338598   -2.8461279867    4.3711861505
H       -0.9173682478   -1.6240577570   -0.5443095344
H        1.3402402084   -1.3570652004    5.0232059031
30   
torsion grid (-150,)
C        1.0713551651   -3.3262008498    4.5769028042
C        3.9365359477   -1.4958185448    6.1011200139
C        4.1092496533   -2.9583902483    5.7448174293
C        0.4782348887   -1.8918145542    0.6382400164
C       -1.7566655590   -1.3755817639    1.4169396995
C        1.0530117812   -1.4236116744    1.9806012783
C       -1.1743313451   -0.8993168902    2.7523356591
C        2.7503362755   -2.4302332966    6.1320087238
C       -0.0303883114   -2.9243483470    3.5861450571
N       -0.7582688135   -1.1477268155    0.3642997722
N        0.0980710685   -1.5507104775    3.0967040852
N        1.7524202172   -2.2764676867    5.1144693272
O        1.2740114361   -4.5067115275    4.8562335029
H        4.3249916466   -1.1384745842    7.0500459825
H        3.9802975204   -0.7729311735    5.2910991312
H        4.2519952768   -3.2121162072    4.6998873524
H        4.6130836179   -3.6123212063    6.4493988441
H        1.2017827966   -1.6844004635   -0.1576142404
H        0.3175017858   -2.9848071835    0.6617199126
H       -2.0524035254   -2.4378869754    1.5009591754
H       -2.6576887958   -0.7980870111    1.1824063465
H        1.9594692707   -1.9853581773    2.2262176353
H        1.3273143396   -0.3658685994    1.8915863609
H       -0.9884532630    0.1790877535    2.6822271188
H       -1.8879877584   -1.0641133943    3.5655778282
H        2.3705514965   -2.7294857704    7.1068046648
H       -0.0415222634   -3.6945842765    2.8039576044
H       -0.9774803282   -3.0221786303    4.1273042688
H       -1.1364804425   -1.4313046927   -0.5363497162
H        1.4187875956   -1.3560871750    4.8416710297
30   
torsion grid (-135,)
C        1.1466286473   -3.3224406473    4.5748108905
C        3.9448413362   -1.4487657258    6.1661217024
C        4.0802717222   -2.9456596840    5.9743075784
C        0.3588896956   -1.8433169188    0.4946396331
C       -1.7807272749   -1.3424590915    1.5183541175
C        1.0727076066   -1.4325192392    1.7880351092
C       -1.0620627128   -0.9256017957    2.8062055014
C        2.7188123549   -2.3311144998    6.1823697198
C        0.1520317661   -2.9868145649    3.4528232180
N       -0.8903605623   -1.0784552187    0.3798226440
N        0.2305930100   -1.6015379219    2.9826376983
N        1.8208062329   -2.2482419007    5.0681712193
O        1.2831951556   -4.4796216901    4.9693338211
H        4.2660933111   -1.0101110020    7.1060715830
H        4.0909234320   -0.8155485902    5.2953903450
H        4.3002436183   -3.3113769650    4.9771420425
H        4.4907206075   -3.5413633770    6.7833726981
H        0.9973924436   -1.6129973102   -0.3651188770
H        0.1859237409   -2.9352269155    0.4972260083
H       -2.0737292148   -2.4067153315    1.5903723901
H       -2.6960881493   -0.7527581595    1.3971057199
H        1.9937160822   -2.0087569574    1.9214738731
H        1.3482785090   -0.3739431996    1.7128496270
H       -0.8736410400    0.1538587481    2.7637274240
H       -1.6881591583   -1.1209966880    3.6819692065
H        2.2431354129   -2.5139548009    7.1439399897
H        0.3044486223   -3.7343447053    2.6645017163
H       -0.8421286249   -3.1865714906    3.8645509429
H       -1.3616584182   -1.3216584937   -0.4881568138
H        1.5266033603   -1.3498278815    4.6935083611
30   
torsion grid (-120,)
C        1.1800464575   -3.3152793667    4.5598346797
C        3.9137789824   -1.4365319586    6.2586007311
C        4.0018592240   -2.9475804756    6.1848522873
C        0.2075883607   -1.8307504814    0.3688527574
C       -1.7991179407   -1.3476751527    1.6400224090
C        1.0641592435   -1.4413406933    1.5790157236
C       -0.9366303691   -0.9572189801    2.8453481219
C        2.6548151483   -2.2702798408    6.2225844093
C        0.3239829185   -3.0330006313    3.3146631276
N       -1.0450812031   -1.0647480096    0.4115036284
N        0.3660229176   -1.6391104175    2.8584342169
N        1.8641931446   -2.2366292830    5.0273832084
O        1.2191590607   -4.4417857893    5.0532440232
H        4.1678610322   -0.9419932932    7.1913427200
H        4.1648992485   -0.8748549475    5.3630998480
H        4.2949848593   -3.3925574020    5.2400670119
H        4.3125413107   -3.4969505896    7.0678205679
H        0.7425042363   -1.5863185078   -0.5554451124
H        0.0354067365   -2.9232780289    0.3760103566
H       -2.0871396051   -2.4123548449    1.7244098192
H       -2.7199860731   -0.7541609062    1.6363054178
H        1.9979168488   -2.0118400322    1.5938615040
H        1.3228120115   -0.3791675768    1.4948549514
H       -0.7517530276    0.1227844380    2.8047943032
H       -1.4586653165   -1.1709205849    3.7829270890
H        2.0876384579   -2.3650235684    7.1465034933
H        0.6588583958   -3.7358019451    2.5436162335
H       -0.6947415222   -3.3419551825    3.5695388698
H       -1.6138877212   -1.2929462447   -0.4002661377
H        1.6450428901   -1.3593309194    4.5616040992
30   
torsion grid (-105,)
C        1.2419863626   -3.2639448918    4.5494048788
C        3.9044053400   -1.4063253470    6.3793132473
C        3.9220092922   -2.9214270244    6.4033643926
C        0.0538979590   -1.8109881053    0.3102385372
C       -1.7599431036   -1.3191061270    1.8385343784
C        1.0653531660   -1.4269774890    1.3954032760
C       -0.7416873719   -0.9434312583    2.9212581517
C        2.6129386268   -2.1830018539    6.2776143059
C        0.5338131514   -3.0278842531    3.2059948678
N       -1.1762789831   -1.0367188242    0.5205958555
N        0.5509968035   -1.6300064742    2.7586891490
N        1.9327613890   -2.1889475422    5.0157878843
O        1.1814669795   -4.3581851631    5.1088190380
H        4.0994338520   -0.8655016723    7.3005218288
H        4.2622032879   -0.9145201780    5.4789978958
H        4.2747232382   -3.4380969014    5.5172653275
H        4.1250508352   -3.4272085777    7.3419475031
H        0.4619586862   -1.5687016277   -0.6772349194
H       -0.1213338722   -2.9027892585    0.3416592927
H       -2.0486594613   -2.3802166669    1.9538340909
H       -2.6657445852   -0.7157785986    1.9632980538
H        1.9941198739   -1.9937415150    1.2791627013
H        1.3070144160   -0.3633849056    1.2831798029
H       -0.5600260130    0.1364153115    2.8687305926
H       -1.1370445846   -1.1670448833    3.9171494025
H        1.9623925963   -2.1928933246    7.1499461892
H        1.0395855687   -3.6739158754    2.4810689386
H       -0.4775748562   -3.4358087746    3.3107651124
H       -1.8508994136   -1.2591277659   -0.2074594486
H        1.8093344629   -1.3356379687    4.4763297331
30   
torsion grid (-90,)
C        1.2726576024   -3.2414135796    4.4627022521
C        3.8508701341   -1.4404086021    6.4659159297
C        3.7761719568   -2.9508824278    6.5619893911
C       -0.1111335493   -1.7877996451    0.2508306995
C       -1.7115519245   -1.3135029673    2.0059126360
C        1.0316513744   -1.4156310908    1.2013745507
C       -0.5611729008   -0.9561219011    2.9548626922
C        2.5324688098   -2.1503060335    6.2677144769
C        0.7256245840   -3.0392630320    3.0415206891
N       -1.3020689942   -1.0151659981    0.6271780861
N        0.7032659728   -1.6360534197    2.6182790506
N        1.9832830305   -2.1844088987    4.9437250431
O        1.0942850671   -4.2983842698    5.0661766542
H        3.9839831113   -0.8633228259    7.3760741988
H        4.3257374758   -1.0166255311    5.5853850418
H        4.1850960528   -3.5313166873    5.7419879889
H        3.8534259350   -3.4171425876    7.5390306611
H        0.1676693964   -1.5322506434   -0.7774301814
H       -0.2820333326   -2.8798398426    0.2898701824
H       -1.9933743156   -2.3732074009    2.1429227277
H       -2.5884704293   -0.7064975919    2.2558253720
H        1.9381478099   -1.9776632242    0.9563749162
H        1.2535666817   -0.3495284221    1.0730732135
H       -0.3874318156    0.1248098278    2.8995884405
H       -0.8277636400   -1.1997088142    3.9883961217
H        1.7982920274   -2.0792419674    7.0678941417
H        1.3858568872   -3.6087883224    2.3790547788
H       -0.2490244342   -3.5408809130    3.0067045639
H       -2.0657634054   -1.2277295802   -0.0101948921
H        1.9606923030   -1.3506411658    4.3623954183
30   
torsion grid (-75,)
C        1.2988813784   -3.1822580464    4.3696199290
C        3.7866873068   -1.4574733025    6.5544362084
C        3.5908519686   -2.9516691478    6.7125301284
C       -0.2652565551   -1.7798330039    0.2271727803
C       -1.6475944289   -1.3259096638    2.1650930417
C        0.9801614146   -1.3958017347    1.0343571382
C       -0.3954002764   -0.9538118136    2.9683809086
C        2.4488915688   -2.0858938214    6.2433125240
C        0.9223133742   -3.0187824663    2.8909135901
N       -1.4113123052   -1.0227784103    0.7470481489
N        0.8281916235   -1.6171451582    2.4798462652
N        2.0474784834   -2.1568862719    4.8680259550
O        0.9800109396   -4.1841176510    5.0068044120
H        3.8617732207   -0.8419283533    7.4458270321
H        4.3844139304   -1.1157476242    5.7140560842
H        4.0422642693   -3.6024905070    5.9714345057
H        3.5270836163   -3.3679085959    7.7128348821
H       -0.1141248017   -1.5164189935   -0.8255077547
H       -0.4180172595   -2.8736568387    0.2789009574
H       -1.8986847944   -2.3881154530    2.3354582362
H       -2.4945662003   -0.7285356578    2.5195726918
H        1.8549527047   -1.9510495709    0.6812670565
H        1.1744726048   -0.3277455986    0.8798774682
H       -0.2414999288    0.1288296215    2.8914612120
H       -0.5352426013   -1.1989512323    4.0256708959
H        1.6390005218   -1.9210738272    6.9514922577
H        1.7146266373   -3.5010645064    2.3073408703
H        0.0108709761   -3.6111426152    2.7375982499
H       -2.2438059947   -1.2442955443    0.2061911424
H        2.1253586068   -1.3431750377    4.2642823494
30   
torsion grid (-60,)
C        1.3476297027   -3.1250000428    4.2557151024
C        3.7196746544   -1.5092916530    6.6522738646
C        3.3808381622   -2.9737887319    6.8415092216
C       -0.4185893507   -1.8102155584    0.2385136320
C       -1.5692527145   -1.3597498610    2.3257551859
C        0.9058421345   -1.3859999860    0.8858630952
C       -0.2398646745   -0.9399039831    2.9643723396
C        2.3787084801   -2.0432730666    6.2068425911
C        1.1337969989   -2.9780005374    2.7452212386
N       -1.5135891976   -1.0749485302    0.8847554066
N        0.9295642220   -1.5853192240    2.3407863322
N        2.1374182940   -2.1484290330    4.7960333000
O        0.8837432437   -4.0679763245    4.8917900386
H        3.7421176319   -0.8601098912    7.5223930770
H        4.4376036821   -1.2566251642    5.8770992281
H        3.8588024678   -3.6925796698    6.1847394686
H        3.1656061997   -3.3359802822    7.8416891477
H       -0.4010581148   -1.5555817757   -0.8269951852
H       -0.5375446518   -2.9063098684    0.3163067878
H       -1.7644596728   -2.4251679458    2.5422782431
H       -2.3853109081   -0.7793279893    2.7698471728
H        1.7440609939   -1.9313227685    0.4398670341
H        1.0568612318   -0.3172776862    0.6921428590
H       -0.1221848063    0.1432530072    2.8419083713
H       -0.2491318680   -1.1582827018    4.0352804194
H        1.5086641406   -1.7809244590    6.8063270708
H        2.0313904963   -3.3516586883    2.2383042559
H        0.3096812856   -3.6593219447    2.4927197428
H       -2.3985582655   -1.3269885254    0.4512516747
H        2.3151875423   -1.3489914874    4.1950123150
30   
torsion grid (-45,)
C        0.8872300882   -2.9929891770    4.6812336644
C        2.6632742902   -5.7193726473    4.4307866452
C        1.5175675789   -6.6686182875    4.7130770947
C       -1.4250089339   -3.2284595101    0.6683808560
C        0.6415604346   -2.0113593581    0.4153968521
C       -1.1610490976   -3.3574393148    2.1676660417
C        0.8975704677   -2.1331593708    1.9150372313
C        1.5275061280   -5.2851314248    5.3217507115
C       -0.2358339724   -2.1238877687    4.0895753653
N       -0.1417376296   -3.1670683994   -0.0375422042
N       -0.3825825620   -2.2048123420    2.6326792445
N        0.5861782852   -4.3262271182    4.8136510682
O        1.9935164778   -2.5326406495    4.9530431004
H        3.6244494635   -5.9043126848    4.8993954597
H        2.7101832389   -5.2636405811    3.4477438664
H        0.8129598689   -6.8554806488    3.9073928407
H        1.6865615638   -7.5127060893    5.3748522881
H       -1.9821953961   -4.1048647565    0.3196401853
H       -2.0482093503   -2.3321296019    0.5000430984
H        0.1303696730   -1.0515484656    0.2225173957
H        1.5994220564   -2.0024491263   -0.1155006362
H       -2.1156513225   -3.3775855179    2.7065543168
H       -0.6394145459   -4.3153644986    2.3444464618
H        1.5211254362   -3.0238395343    2.1002140521
H        1.4523948870   -1.2614645628    2.2747301627
H        1.7416377947   -5.2028403062    6.3853288857
H       -1.2035625232   -2.3609137751    4.5462762164
H        0.0202133990   -1.0941021265    4.3558358440
H       -0.3037007110   -3.1012621325   -1.0398449278
H       -0.3768386353   -4.6148576101    4.7036082285
30   
torsion grid (-30,)
C        0.8231416043   -2.9779655397    4.7076179621
C        2.7959322828   -5.5643055217    4.4629594403
C        1.7012688369   -6.5998264557    4.6130575497
C       -1.5278379947   -3.0499982745    0.6120933725
C        0.7326556574   -2.2317538633    0.4493438403
C       -1.3591488502   -3.1996014248    2.1228258654
C        0.8949470524   -2.3859592236    1.9586467695
C        1.5735005773   -5.2539177817    5.2888737907
C       -0.3217263600   -2.1584654374    4.0920218558
N       -0.2261489521   -3.2309744766   -0.0372095391
N       -0.4046402325   -2.2017184603    2.6213983035
N        0.6042260400   -4.3325890334    4.7639354358
O        1.8766922710   -2.4605382532    5.0683707745
H        3.7321766541   -5.7113342995    4.9916682746
H        2.8812640946   -5.0540720385    3.5098542012
H        1.0690764665   -6.7873864814    3.7495367794
H        1.8813117332   -7.4661283326    5.2423968976
H       -2.2195394348   -3.8162452246    0.2452750805
H       -1.9709908944   -2.0585582387    0.4103524881
H        0.4136130009   -1.1969265440    0.2331945061
H        1.6991634493   -2.4013687317   -0.0370417323
H       -2.3259911256   -3.0382870391    2.6120127981
H       -1.0318276553   -4.2359885199    2.3327900126
H        1.3222980522   -3.3810366340    2.1674759323
H        1.5936231089   -1.6348402879    2.3381756194
H        1.7077961084   -5.2161364032    6.3679397591
H       -1.2886743434   -2.4628567115    4.5055060023
H       -0.1341944706   -1.1267320256    4.4058779661
H       -0.3312028791   -3.1442642935   -1.0455840741
H       -0.3259968150   -4.6778656100    4.5676841742
30   
torsion grid (-15,)
C        0.8185638800   -2.9916766042    4.7473298835
C        2.9620692715   -5.4137568029    4.5339461526
C        1.9388689756   -6.5295158053    4.5617411805
C       -1.6014070080   -2.8124518277    0.5715277326
C        0.7767607260   -2.4460624112    0.4723880357
C       -1.5028412060   -3.0140481906    2.0821451285
C        0.8736560923   -2.6653240249    1.9794159756
C        1.6771126272   -5.2380428842    5.3027679712
C       -0.3515840823   -2.2356991696    4.1046998084
N       -0.3449155658   -3.2306647737   -0.0561549376
N       -0.3776656169   -2.2448156509    2.6250908384
N        0.6734655414   -4.3563141450    4.7758281463
O        1.8190430091   -2.4191149149    5.1700800950
H        3.8759854449   -5.5269084872    5.1080924902
H        3.0628970307   -4.8417703860    3.6182655247
H        1.3690907209   -6.7086131927    3.6540441343
H        2.1463763553   -7.4173049105    5.1514483679
H       -2.4194488660   -3.4245431868    0.1761838251
H       -1.8403452011   -1.7510287080    0.3808019301
H        0.6678542828   -1.3643635941    0.2794144810
H        1.7030079716   -2.7880131926   -0.0017716543
H       -2.4289630260   -2.6637690247    2.5498202530
H       -1.4043234365   -4.0989861747    2.2863221989
H        1.0962334208   -3.7301898270    2.1627548007
H        1.6975098208   -2.0717429302    2.3854045704
H        1.7488141840   -5.2568663136    6.3882575336
H       -1.3003898176   -2.6306477226    4.4828638727
H       -0.2578180886   -1.2042400142    4.4592502948
H       -0.4073993825   -3.1073426325   -1.0642098164
H       -0.2111537706   -4.7530140382    4.4869830118
30   
torsion grid (0,)
C        1.3509833365   -2.3131451715    3.9117093077
C        4.0911288457   -3.4130322220    5.3523767956
C        5.0165393115   -2.9857678583    4.2321528233
C       -2.4731813548   -1.2722185130    1.0341421252
C       -1.0095443958   -3.0837786573    0.4204423011
C       -1.7090800376   -1.1008064728    2.3445713732
C       -0.2514510557   -2.9316648404    1.7373259279
C        3.5803508326   -3.3488402774    3.9356339726
C        0.5207551705   -1.1636519049    3.3372901872
N       -2.4045099925   -2.6746102275    0.6133795491
N       -0.3183078911   -1.5335032210    2.1814723377
N        2.6822977586   -2.2863599209    3.5759019044
O        0.8618288994   -3.1862280083    4.6231805626
H        4.2206164620   -4.3963179891    5.7927860496
H        3.7331827289   -2.6475834259    6.0323159117
H        5.2883902537   -1.9351058512    4.1796052995
H        5.7893375603   -3.6722468096    3.8999137272
H       -3.5222643820   -0.9964999000    1.1871137148
H       -2.0403246304   -0.5835305856    0.2858995590
H       -0.4961904869   -2.4850666181   -0.3539717540
H       -0.9880422679   -4.1348304662    0.1126695478
H       -1.7162282748   -0.0420776017    2.6261863863
H       -2.2188893028   -1.6707654238    3.1420195977
H       -0.6722175912   -3.6263323705    2.4806439092
H        0.7960645838   -3.2063915310    1.5761636622
H        3.3893763028   -4.2989488485    3.4406122618
H       -0.1080544851   -0.8313295109    4.1710138187
H        1.1710706080   -0.3205110611    3.0631122302
H       -2.9224467405   -2.7987047900   -0.2536040078
H        2.9792250769   -1.6299842473    2.8650562049
30   
torsion grid (15,)
C        1.2564710179   -2.3586652173    4.1019134449
C        4.1900814969   -3.3750699513    5.2022014211
C        4.9517769130   -2.9494475679    3.9643087168
C       -2.2896735049   -1.2013512406    0.8709721603
C       -0.9195532312   -3.1497343416    0.5187061918
C       -1.6955207866   -1.0364943951    2.2672968882
C       -0.3265908886   -3.0097012955    1.9190709921
C        3.4964006837   -3.3419755744    3.8643482896
C        0.3311032980   -1.2570270785    3.5844035704
N       -2.2870779260   -2.6218575330    0.5114441514
N       -0.3461881967   -1.5983724612    2.3201074777
N        2.5387756545   -2.3006363887    3.6125749103
O        0.8806559613   -3.2201967746    4.8906123228
H        4.3956451545   -4.3489148621    5.6346246364
H        3.9094782943   -2.6054289676    5.9129981081
H        5.1936020055   -1.8951897496    3.8619677772
H        5.6873646874   -3.6276582673    3.5426147687
H       -3.3217699735   -0.8345200809    0.8704330135
H       -1.7035250179   -0.5841132122    0.1660316015
H       -0.2601851123   -2.6246921615   -0.1966104811
H       -0.9468965353   -4.2099348915    0.2451354175
H       -1.6395284196    0.0301298040    2.5132143123
H       -2.3606226517   -1.5199746801    3.0064751048
H       -0.8907739923   -3.6508838058    2.6165606385
H        0.7072114112   -3.3653819477    1.9004590445
H        3.2610096192   -4.3033553165    3.4114151829
H       -0.3994470541   -1.1104162893    4.3918199337
H        0.8803281994   -0.3141975315    3.4572880506
H       -2.6992066139   -2.7446579562   -0.4105997083
H        2.7169038422   -1.6646493225    2.8446067075
30   
torsion grid (30,)
C        1.1829742908   -2.4018413403    4.2954952481
C        4.2850735492   -3.2311849974    5.0578857831
C        4.8534106106   -2.8723756549    3.7005900123
C       -2.0488506403   -1.1119108398    0.7696114658
C       -0.8239991251   -3.1797946905    0.6086825788
C       -1.6286623194   -0.9763552169    2.2307051204
C       -0.4021148107   -3.0670585283    2.0719169227
C        3.4160182536   -3.3190218181    3.8296284901
C        0.1572674261   -1.3757354539    3.8124339005
N       -2.1263958407   -2.5335842729    0.4228785781
N       -0.3549222266   -1.6538697343    2.4634499686
N        2.3902468484   -2.3302974707    3.6427242053
O        0.9508306626   -3.2007339575    5.1962556180
H        4.5890498962   -4.1634233402    5.5228795507
H        4.0704578817   -2.4213060025    5.7465956386
H        5.0326509697   -1.8210002112    3.4940653344
H        5.5539961771   -3.5548630483    3.2290633023
H       -3.0353218554   -0.6564042979    0.6321084564
H       -1.3238232452   -0.5609783227    0.1434375319
H       -0.0344569956   -2.7279596855   -0.0196993895
H       -0.9107932017   -4.2380562495    0.3407005333
H       -1.5104115624    0.0842127724    2.4811391737
H       -2.4243705982   -1.3890774112    2.8782922258
H       -1.1065140614   -3.6453654100    2.6953376444
H        0.5883364759   -3.5121279947    2.1901602840
H        3.1640971096   -4.3189430579    3.4799566379
H       -0.6459763097   -1.4049071513    4.5646776368
H        0.5922680000   -0.3679790659    3.8248937781
H       -2.4292520070   -2.6376929568   -0.5427245573
H        2.4138261113   -1.7741744573    2.7949796895
30   
torsion grid (45,)
C        1.1201751851   -2.4910604509    4.4033908091
C        4.3214268504   -3.0623116905    4.9231276521
C        4.7394062600   -2.7882854342    3.4933171468
C       -1.8178663497   -1.0471790236    0.6853511244
C       -0.7957385376   -3.2294670259    0.6417718594
C       -1.5462304344   -0.9487473072    2.1843018298
C       -0.5243115379   -3.1482199566    2.1417098608
C        3.3551655570   -3.3139390241    3.7941823865
C        0.0011782704   -1.5524485467    3.9464535582
N       -1.9980560606   -2.4551727089    0.3209302355
N       -0.3730734954   -1.7443452305    2.5444532254
N        2.2482859047   -2.4144576852    3.6253714113
O        1.0229325223   -3.2069277614    5.3944280029
H        4.7331913726   -3.9280142761    5.4317823588
H        4.1101941581   -2.2108778839    5.5608884398
H        4.8218594524   -1.7499685693    3.1848502680
H        5.4432859630   -3.4628709229    3.0152675105
H       -2.7338763923   -0.4968954807    0.4457242632
H       -0.9789036566   -0.5723793012    0.1450502109
H        0.0988549786   -2.8652503708    0.1035906460
H       -0.9604674720   -4.2750203802    0.3613346432
H       -1.3563016149    0.0956183233    2.4565619527
H       -2.4417414798   -1.2854915611    2.7381934948
H       -1.3531161840   -3.6372995587    2.6845638650
H        0.3915590043   -3.6963733864    2.3729252843
H        3.1477951182   -4.3550433358    3.5515612954
H       -0.8396203985   -1.7397829168    4.6340576963
H        0.3209588245   -0.5121415032    4.0841407157
H       -2.2037280884   -2.5314007005   -0.6724456081
H        2.1399060129   -1.9399951805    2.7344943543
30   
torsion grid (60,)
C        1.0558166142   -2.5940870577    4.5470200707
C        4.3098488874   -2.9214026785    4.9043055566
C        4.6210037751   -2.7576157585    3.4307523848
C       -1.6031817647   -0.9806831583    0.7061309634
C       -0.8494472681   -3.2706666886    0.7153068662
C       -1.4428473335   -0.9187094392    2.2230127328
C       -0.6877713120   -3.2183336613    2.2316188303
C        3.2975063058   -3.3398849914    3.8688577950
C       -0.1377453066   -1.7463746640    4.0956558788
N       -1.9205350283   -2.3558271944    0.3104818414
N       -0.3939338437   -1.8434700613    2.6606944804
N        2.1223317898   -2.5352978688    3.6904537175
O        1.0560189433   -3.2171919746    5.6045468879
H        4.8113921709   -3.7066018169    5.4608277473
H        4.0787146910   -2.0285210503    5.4750224373
H        4.6119221945   -1.7498516892    3.0252079172
H        5.3407236753   -3.4274549489    2.9698716096
H       -2.4239870973   -0.3234118012    0.4005165132
H       -0.6725044090   -0.6086600673    0.2404719723
H        0.1216396938   -3.0200471800    0.2496741420
H       -1.1177311476   -4.2888375123    0.4149712549
H       -1.1599322761    0.0963114758    2.5227569168
H       -2.4110662344   -1.1573852732    2.6989454799
H       -1.6116043021   -3.5934031214    2.7073484437
H        0.1323247203   -3.8741356973    2.5358881777
H        3.1502141017   -4.4103827211    3.7357344846
H       -0.9961394064   -2.0669139102    4.7079166868
H        0.0738407965   -0.6993512709    4.3430488729
H       -2.0543046010   -2.4035928025   -0.6968501233
H        1.9305987117   -2.1260093974    2.7807919662
30   
torsion grid (75,)
C        1.0798908462   -2.6609250003    4.5971553301
C        4.3485748630   -2.7069385306    4.7988897677
C        4.5772131543   -2.6778452494    3.3014754062
C       -1.3844214960   -0.9213994394    0.7074819072
C       -0.9225929216   -3.2889725293    0.7046091169
C       -1.2953147248   -0.9020855415    2.2314685439
C       -0.8326056808   -3.2725807211    2.2274340013
C        3.3330481765   -3.3205980542    3.8689074216
C       -0.1932164397   -1.9357371775    4.1445068188
N       -1.8476326101   -2.2401945375    0.2665643936
N       -0.3831469311   -1.9534493029    2.6965608769
N        2.0824603647   -2.6467352362    3.6704439298
O        1.1774794973   -3.1559600275    5.7174872457
H        4.9443781338   -3.3810086454    5.4059371704
H        4.0628298309   -1.7808951783    5.2858843223
H        4.4583222165   -1.7245660228    2.7941114002
H        5.3338440105   -3.3292440392    2.8744586823
H       -2.1013569184   -0.1630332377    0.3758702365
H       -0.3922739021   -0.6598954768    0.2964588241
H        0.0945096929   -3.1599642857    0.2905068891
H       -1.3028707199   -4.2609412550    0.3736762132
H       -0.9088822895    0.0668859413    2.5649299221
H       -2.3077674123   -1.0311502395    2.6536233595
H       -1.8200331493   -3.5258727237    2.6522634605
H       -0.1185899838   -4.0303100733    2.5651908912
H        3.2786253278   -4.4076358291    3.8552792332
H       -1.0337960086   -2.3789001261    4.7004516330
H       -0.1000222179   -0.8951662651    4.4756472332
H       -1.9348865136   -2.2554776002   -0.7468012721
H        1.8206614834   -2.3070944547    2.7493244832
30   
torsion grid (90,)
C        1.0595765522   -2.7373948893    4.7220914465
C        4.3325824185   -2.5191119646    4.7890162246
C        4.5019489224   -2.6487160397    3.2887228350
C       -1.1983806446   -0.8996771685    0.8021079709
C       -1.0531348012   -3.3061299132    0.7453082921
C       -1.1706753037   -0.9294225463    2.3281855466
C       -1.0238815769   -3.3377645680    2.2703912469
C        3.3321145041   -3.3071131157    3.9814491322
C       -0.2794086275   -2.1539869068    4.2510586796
N       -1.8138283742   -2.1335167159    0.3048296565
N       -0.4219642224   -2.1038874986    2.7956754633
N        2.0276957465   -2.7533033637    3.7631663983
O        1.2196447170   -3.1108440998    5.8826287509
H        5.0004086122   -3.0738987278    5.4402839459
H        3.9966856979   -1.5648804275    5.1803033659
H        4.2928805515   -1.7714355966    2.6827883951
H        5.2895059256   -3.2896415814    2.9038523694
H       -1.7933518443   -0.0439950101    0.4661344706
H       -0.1639877240   -0.7634555077    0.4366795162
H       -0.0118471727   -3.3026183633    0.3734054555
H       -1.5435761283   -4.2109654958    0.3716662683
H       -0.6741105489   -0.0283960816    2.7028925667
H       -2.2078904411   -0.9337973528    2.7068875187
H       -2.0521919951   -3.4678573203    2.6508987077
H       -0.4277994024   -4.1906543683    2.6124786126
H        3.3590809405   -4.3891707401    4.0945207958
H       -1.0798111287   -2.7213743567    4.7465759377
H       -0.3229447833   -1.1363584814    4.6536187008
H       -1.8599299325   -2.1119339052   -0.7111854431
H        1.7160019061   -2.4976228283    2.8299999471
30   
torsion grid (105,)
C        1.0545046213   -2.7819352275    4.7519380861
C        4.2984236985   -2.3224284721    4.7201582095
C        4.4508668871   -2.5695566667    3.2328709620
C       -0.9675623648   -0.9042146010    0.8189328257
C       -1.1995446609   -3.3027608355    0.7136799895
C       -0.9932771170   -0.9627031862    2.3442744616
C       -1.2227702437   -3.3682091824    2.2381647228
C        3.3482905590   -3.2521190433    4.0078352378
C       -0.3344394944   -2.3431398913    4.2651406723
N       -1.7528041576   -2.0174459170    0.2793418651
N       -0.4602346514   -2.2499514643    2.8079065382
N        2.0014944121   -2.8199935299    3.7747116502
O        1.2575002362   -3.0422462697    5.9368203627
H        5.0191609286   -2.7653715301    5.4000601932
H        3.8956850098   -1.3662189752    5.0363702042
H        4.1632528113   -1.7675218277    2.5586607805
H        5.2792696831   -3.1798067187    2.8857267171
H       -1.4099359207    0.0397276480    0.4838498252
H        0.0865877966   -0.9268067670    0.4860335802
H       -0.1593939685   -3.4561835270    0.3713565453
H       -1.8140630931   -4.1119924941    0.3056603419
H       -0.3692608465   -0.1603759921    2.7512698125
H       -2.0288314674   -0.8040266767    2.6931992331
H       -2.2708227227   -3.3537351551    2.5855811448
H       -0.7680421785   -4.3064592634    2.5735778916
H        3.4611386201   -4.3149873085    4.2122999329
H       -1.0649196183   -3.0328540628    4.7053702724
H       -0.5232860189   -1.3683861302    4.7276964222
H       -1.7679927561   -1.9712058357   -0.7366523978
H        1.6521401805   -2.6614141406    2.8329061471
30   
torsion grid (120,)
C        0.9694077427   -2.8257000570    4.7411676953
C        4.1830492177   -2.1802950744    4.6683818622
C        4.3561898387   -2.5473334105    3.2083715472
C       -0.7581819804   -0.9587214842    0.7981657773
C       -1.3353463400   -3.2926032743    0.6112423413
C       -0.8451272893   -1.0520588687    2.3191404852
C       -1.4268660846   -3.4008257584    2.1312409508
C        3.2908757012   -3.2215269616    4.0405343725
C       -0.4475668424   -2.5497253153    4.2164467928
N       -1.6822630242   -1.9282391294    0.2031795194
N       -0.5404466882   -2.4166594963    2.7609629075
N        1.9228247405   -2.8885854196    3.7715744002
O        1.1807476408   -2.9646027139    5.9448385107
H        4.9246133244   -2.5202659667    5.3842218191
H        3.7249356889   -1.2247757478    4.8999651928
H        4.0260934463   -1.8250721421    2.4668105648
H        5.2197405076   -3.1369339164    2.9154618295
H       -1.0427704085    0.0489819065    0.4781435859
H        0.2911941015   -1.1316654397    0.4953147414
H       -0.3144365806   -3.5817419539    0.3001755341
H       -2.0416826378   -3.9927479865    0.1532725476
H       -0.1180642605   -0.3694006399    2.7714228924
H       -1.8542429752   -0.7406810430    2.6425828455
H       -2.4772796052   -3.2549581307    2.4397831553
H       -1.1159138899   -4.4022734821    2.4463394885
H        3.4631589168   -4.2541411730    4.3377829845
H       -1.0753619064   -3.3714796272    4.5773246456
H       -0.8072427793   -1.6510516025    4.7317444079
H       -1.6568443924   -1.8533907922   -0.8109843834
H        1.5663325092   -2.8457660994    2.8199069737
30   
torsion grid (135,)
C        0.9859173159   -2.8479026472    4.7683892906
C        4.1496653206   -2.0101192560    4.6072562152
C        4.3414053442   -2.4949170448    3.1844313190
C       -0.5755567055   -1.0104450615    0.8759313677
C       -1.4676442446   -3.2371075033    0.6257098462
C       -0.6581565750   -1.1428001223    2.3939910487
C       -1.5594916951   -3.3831572148    2.1428221751
C        3.3243047519   -3.1582889244    4.0828716028
C       -0.4494668585   -2.7246024582    4.2367081816
N       -1.6294896236   -1.8254298070    0.2652153070
N       -0.5402291434   -2.5500669545    2.7882816148
N        1.9370445334   -2.9371039247    3.7975956172
O        1.2141127808   -2.8711352390    5.9765589610
H        4.9137254495   -2.2363438600    5.3440802620
H        3.6317291697   -1.0688314119    4.7565765190
H        3.9632191622   -1.8647736958    2.3841271999
H        5.2400624083   -3.0522667698    2.9377309466
H       -0.7241767208    0.0366359501    0.5924713920
H        0.4371362264   -1.3134339930    0.5509214644
H       -0.4980957537   -3.6510841357    0.2925832438
H       -2.2665810268   -3.8193108230    0.1549594964
H        0.1585765590   -0.5812507960    2.8598294215
H       -1.6122094079   -0.7098859648    2.7438939998
H       -2.5779827679   -3.1065729316    2.4686236342
H       -1.3843456120   -4.4273851492    2.4212298487
H        3.5630404398   -4.1470408681    4.4696740386
H       -0.9587619273   -3.6476550886    4.5320618301
H       -0.9374003666   -1.9151162977    4.7970076298
H       -1.6043089003   -1.7221894130   -0.7464922043
H        1.5774649786   -3.0010494568    2.8486175943
30   
torsion grid (150,)
C        0.9499313122   -2.8559675964    4.7642933591
C        4.0604409481   -1.8511418361    4.5720812075
C        4.3136099066   -2.4645535058    3.2099426592
C       -0.4598834580   -1.0712512350    0.8940538410
C       -1.6070409260   -3.1725721106    0.6009539331
C       -0.5215307765   -1.2483976124    2.4080868930
C       -1.6738588658   -3.3553950181    2.1152874939
C        3.3193775316   -3.0969148712    4.1551369765
C       -0.4750748118   -2.8864932359    4.1969405221
N       -1.6127038241   -1.7409528313    0.2851461223
N       -0.5402989854   -2.6760996021    2.7531740384
N        1.9280475119   -2.9956462395    3.8251577109
O        1.1534612901   -2.7416778658    5.9712865841
H        4.8201627661   -1.9525399965    5.3404633202
H        3.4825593151   -0.9342304715    4.6160317405
H        3.9153927589   -1.9442236416    2.3431231956
H        5.2501762112   -2.9857027639    3.0358851875
H       -0.4968770323   -0.0044551216    0.6502866390
H        0.5049176108   -1.4722692840    0.5317723601
H       -0.7023400468   -3.6859741097    0.2269896327
H       -2.4812479773   -3.6428784208    0.1388489580
H        0.3563025431   -0.7876627175    2.8724091883
H       -1.4198733962   -0.7369423599    2.7968011376
H       -2.6393700942   -2.9646502937    2.4825683677
H       -1.6231521723   -4.4218176666    2.3584657081
H        3.6099630018   -4.0240559992    4.6451000542
H       -0.8732910055   -3.8793814005    4.4327158687
H       -1.0731817912   -2.1634537379    4.7715159497
H       -1.5961704644   -1.6099412190   -0.7235488851
H        1.6016439114   -3.1610475052    2.8770867051
30   
torsion grid (165,)
C        0.9593923346   -2.8672735094    4.7424542201
C        3.9993970241   -1.7024549142    4.5028760129
C        4.3294676525   -2.4413690448    3.2222061736
C       -0.3717304972   -1.1383471415    0.9032727889
C       -1.7461674870   -3.0977828123    0.6101081753
C       -0.3770539842   -1.3658913200    2.4115277262
C       -1.7466897768   -3.3203935175    2.1202836104
C        3.3573253125   -3.0364553555    4.2136414161
C       -0.4416509051   -3.0512781803    4.1494692399
N       -1.6144185407   -1.6646685457    0.3320107610
N       -0.5044801590   -2.8026711549    2.7106190567
N        1.9710743141   -3.0726183752    3.8496882449
O        1.1272796038   -2.5976357638    5.9294593244
H        4.7438903149   -1.6645810601    5.2916183105
H        3.3587442716   -0.8297706028    4.4350027938
H        3.9187816133   -2.0490062607    2.2958055894
H        5.3038895761   -2.9102029369    3.1238197475
H       -0.3121695853   -0.0643080375    0.6986364751
H        0.5292927867   -1.6185146211    0.4787324415
H       -0.9262863481   -3.6939541701    0.1699611000
H       -2.6916930492   -3.4564158814    0.1899750898
H        0.5563307661   -0.9949893666    2.8445510923
H       -1.2098070877   -0.7969280987    2.8611752755
H       -2.6331988421   -2.8285870323    2.5582589273
H       -1.8135699459   -4.3928396238    2.3328397448
H        3.6989565807   -3.8813949947    4.8079864097
H       -0.7330221236   -4.0906999241    4.3400241901
H       -1.1239187001   -2.4120186045    4.7316847761
H       -1.6296966426   -1.5043654682   -0.6724813918
H        1.6889930591   -3.3399791210    2.9115736465
30   
torsion grid (180,)
C        0.9432948620   -2.8913365187    4.7047777636
C        3.9074445984   -1.5761660668    4.4515980024
C        4.3432393652   -2.4289960104    3.2781645032
C       -0.3117613651   -1.1818936797    0.8986531160
C       -1.8915436244   -2.9796665551    0.6201674531
C       -0.2508280718   -1.4764847176    2.3940990778
C       -1.8155989269   -3.2601181870    2.1181454153
C        3.3734064987   -2.9787699857    4.2978935861
C       -0.4118715336   -3.2207343352    4.0737751315
N       -1.6300879034   -1.5578389143    0.3818301197
N       -0.4839479961   -2.9141845344    2.6422066507
N        2.0095876940   -3.1612572704    3.8932306282
O        1.0427648792   -2.4661733763    5.8524713212
H        4.6125453400   -1.3935800849    5.2561415286
H        3.2114036345   -0.7663550708    4.2609238930
H        3.9467140522   -2.1762349673    2.2984486256
H        5.3513132103   -2.8323027070    3.2688712538
H       -0.1579628397   -0.1099508881    0.7358253532
H        0.5125516924   -1.7255516254    0.4012704411
H       -1.1706390980   -3.6393308497    0.1043358817
H       -2.8957243223   -3.2228790881    0.2570015959
H        0.7335727137   -1.1997099277    2.7787404902
H       -1.0042157972   -0.8614794688    2.9167655516
H       -2.6042438127   -2.6865386426    2.6361036995
H       -1.9966546221   -4.3252593054    2.3008551662
H        3.7480752498   -3.7231356285    4.9972780679
H       -0.5982588367   -4.2926524319    4.2118997040
H       -1.1661500778   -2.6748907408    4.6627637674
H       -1.6834830499   -1.3571232172   -0.6140427039
H        1.7969667429   -3.5272544763    2.9711893533
