14   
torsion grid (-165,)
C        1.0372094053   -0.5655774562   -0.3646118929
C        3.8272496842    0.0304665520    1.1051311645
C        2.3297745010   -1.3878762067   -0.4480257206
C        3.6145217521   -0.5558477312   -0.2985101902
H        0.1574095510   -1.1989809793   -0.5217372160
H        0.9206571880   -0.0808000026    0.6100953360
H        1.0232757784    0.2200620712   -1.1295120875
H        4.5915917484    0.8149469576    1.0969949892
H        2.9116065608    0.4937911515    1.4881210045
H        4.1296061408   -0.7420001236    1.8207984517
H        2.3136984418   -2.1747473806    0.3185214372
H        2.3567243884   -1.9058533407   -1.4150280909
H        4.4805832470   -1.1736158264   -0.5660524379
H        3.5857346423    0.2609711919   -1.0324285755
14   
torsion grid (-150,)
C        1.0458062027   -0.5248086480   -0.4006467588
C        3.8424666890    0.0027545127    1.1233958693
C        2.3172390525   -1.3822665982   -0.4364739487
C        3.6173388234   -0.5730309499   -0.2880539954
H        0.1494833676   -1.1427770109   -0.5215415181
H        0.9435493739    0.0188928785    0.5444247240
H        1.0521380570    0.2161513500   -1.2089043762
H        4.4112134628    0.9379158387    1.0937028517
H        2.8911582679    0.2412032401    1.6113954620
H        4.3700489020   -0.7054411596    1.7706136735
H        2.2699788543   -2.1437436042    0.3541343679
H        2.3463168505   -1.9309392861   -1.3862290746
H        4.4726051650   -1.1992734638   -0.5676910250
H        3.5930750578    0.2473180056   -1.0175436353
14   
torsion grid (-135,)
C        1.0631157701   -0.4960027541   -0.4047052116
C        3.8529814601    0.0100547475    1.1147504365
C        2.3152409724   -1.3815456607   -0.4332335916
C        3.6295283371   -0.5954724327   -0.2902807800
H        0.1514641279   -1.0947354312   -0.5065990435
H        0.9828459664    0.0682000185    0.5307266005
H        1.0803266043    0.2294417602   -1.2267436332
H        4.2011476604    1.0465701986    1.0654085229
H        2.9241732778    0.0252089849    1.6952721065
H        4.5821790786   -0.5650890776    1.6938241350
H        2.2533280043   -2.1341013911    0.3646466977
H        2.3336806316   -1.9391136686   -1.3781747104
H        4.4705785366   -1.2500543952   -0.5458394481
H        3.6329080845    0.2026515515   -1.0435829601
14   
torsion grid (-120,)
C        1.0729289564   -0.4637747213   -0.4114949247
C        3.8317458903    0.0034302101    1.1201738565
C        2.3007423157   -1.3827511189   -0.4389756514
C        3.6321764557   -0.6312013073   -0.2783368616
H        0.1446100218   -1.0355241000   -0.5181526413
H        1.0082477518    0.0984558022    0.5265150176
H        1.1130220394    0.2645972248   -1.2301886593
H        3.9534364932    1.0897995076    1.0685179309
H        2.9791448079   -0.1942198722    1.7787411428
H        4.7196464367   -0.3961460973    1.6202395288
H        2.2149566054   -2.1371358747    0.3547016859
H        2.3126683724   -1.9349301330   -1.3872612155
H        4.4530446271   -1.3268629665   -0.4864274596
H        3.6930804156    0.1425399436   -1.0537779230
14   
torsion grid (-105,)
C        1.0949228443   -0.4307195359   -0.4156458308
C        3.8264850696    0.0055693948    1.1040117389
C        2.2996923184   -1.3795698436   -0.4522602881
C        3.6482903662   -0.6636776249   -0.2785759898
H        0.1531910011   -0.9752431189   -0.5448934950
H        1.0368689368    0.1097063034    0.5354960429
H        1.1617419289    0.3161218484   -1.2158515296
H        3.7191010237    1.0936960506    1.0539213969
H        3.1034638459   -0.3729940288    1.8345216070
H        4.8252232995   -0.1863604145    1.5104011248
H        2.1949176169   -2.1376779371    0.3353573793
H        2.3009127470   -1.9234396802   -1.4054192214
H        4.4464717679   -1.3994992298   -0.4322378503
H        3.7684973722    0.0811068626   -1.0750528279
14   
torsion grid (-90,)
C        1.1030086058   -0.4013763191   -0.4183502861
C        3.8132660673   -0.0023689974    1.1057023334
C        2.2857240203   -1.3778803171   -0.4496166266
C        3.6507187183   -0.6985972272   -0.2592728938
H        0.1517103756   -0.9220786193   -0.5730938738
H        1.0405204375    0.1236359738    0.5408684938
H        1.2003273195    0.3569406419   -1.2046298773
H        3.4843944807    1.0414830491    1.0762774608
H        3.2524407819   -0.5200752248    1.8919921605
H        4.8651127506    0.0162424371    1.4117008445
H        2.1546658167   -2.1366605902    0.3333957181
H        2.2831332168   -1.9174484682   -1.4052132839
H        4.4286246035   -1.4645716038   -0.3668320736
H        3.8208851730    0.0229711750   -1.0684703361
14   
torsion grid (-75,)
C        1.1149042805   -0.3751902138   -0.4395316895
C        3.8286778861   -0.0177273242    1.1028632776
C        2.2776305725   -1.3760610209   -0.4415101581
C        3.6574689567   -0.7282004839   -0.2481448710
H        0.1598444924   -0.8770262538   -0.6293797811
H        1.0291306441    0.1433503285    0.5211154400
H        1.2515648871    0.3865678623   -1.2166359412
H        3.2930200112    0.9367764559    1.1325367059
H        3.4624829557   -0.6397463957    1.9282597514
H        4.8837794574    0.2039470025    1.2972609504
H        2.1185753763   -2.1215373125    0.3492070535
H        2.2740347175   -1.9287756194   -1.3895800047
H        4.4221264057   -1.5098198530   -0.3403361209
H        3.8466784093   -0.0178399636   -1.0638835058
14   
torsion grid (-60,)
C        1.1170045087   -0.3456028600   -0.4725347498
C        3.8422225306   -0.0348444988    1.1152667718
C        2.2599217431   -1.3679760512   -0.4234114000
C        3.6526580760   -0.7465151341   -0.2306396472
H        0.1591104036   -0.8352446360   -0.6788934374
H        1.0115091949    0.1944871342    0.4738897542
H        1.2884000665    0.3969756548   -1.2612118082
H        3.1301453374    0.7864415463    1.2455531931
H        3.6969375265   -0.7314541446    1.9497847387
H        4.8504735843    0.3841527347    1.2030551089
H        2.0713922358   -2.0874902965    0.3850065543
H        2.2592064917   -1.9481073743   -1.3548353356
H        4.4096922573   -1.5349472452   -0.3273083982
H        3.8434223027   -0.0373213846   -1.0475765552
14   
torsion grid (-45,)
C        1.1107094604   -0.3334181755   -0.5193687002
C        3.8524799295   -0.0542370970    1.1263085121
C        2.2377735593   -1.3675247396   -0.3995372679
C        3.6368105565   -0.7537384355   -0.2240935226
H        0.1445336024   -0.8221635943   -0.6853554179
H        1.0163179481    0.2784377448    0.3836295211
H        1.2903921397    0.3449404297   -1.3619720701
H        3.0033093619    0.5814418644    1.3968060537
H        3.9601482307   -0.7923391872    1.9304731637
H        4.7553891961    0.5647578213    1.1218949017
H        2.0278761827   -2.0430186842    0.4411172393
H        2.2387494623   -1.9941997443   -1.3002939198
H        4.3956066366   -1.5360298684   -0.3479833597
H        3.8046216071   -0.0360462484   -1.0387579434
14   
torsion grid (-30,)
C        1.1281367265   -0.2998331753   -0.5578528096
C        3.8581713634   -0.0796900831    1.1481212766
C        2.2250297085   -1.3590231901   -0.3904979592
C        3.6349078100   -0.7703376887   -0.2110816234
H        0.1460372487   -0.7662700851   -0.6913914359
H        1.0607566204    0.3623919989    0.3117169306
H        1.3222910133    0.3272885505   -1.4360856254
H        2.9318824154    0.3500971562    1.5428365770
H        4.2021236731   -0.8018163801    1.8978135945
H        4.6078465787    0.7153641116    1.0897524457
H        1.9872338063   -2.0028856632    0.4674769760
H        2.2221248556   -2.0128752400   -1.2716091265
H        4.3827153725   -1.5605347353   -0.3452564246
H        3.8083024380   -0.0502745991   -1.0219690305
14   
torsion grid (-15,)
C        1.1457080839   -0.2729474350   -0.5686739587
C        3.8564182262   -0.0841155633    1.1510882527
C        2.2146886333   -1.3583114066   -0.3896731724
C        3.6349662292   -0.7986716626   -0.2021166921
H        0.1504567287   -0.7130358744   -0.6942887709
H        1.1005892890    0.4017522850    0.2930379308
H        1.3554904340    0.3378600475   -1.4547857343
H        2.9082705596    0.1420797730    1.6499367190
H        4.4228895354   -0.7166630636    1.8429755770
H        4.4083587654    0.8542943999    1.0418746943
H        1.9572972796   -1.9915668239    0.4703184195
H        2.2029028684   -2.0163380981   -1.2677184850
H        4.3611052777   -1.6122331075   -0.3106539571
H        3.8385440448   -0.1041151077   -1.0271903827
14   
torsion grid (0,)
C        1.0922474452   -0.9873348637   -0.1666994513
C        3.7906120897    0.2209616127    1.0261344471
C        2.5210495056   -1.3626301126   -0.5797632395
C        3.5242329978   -0.2063163650   -0.4384168560
H        0.4092004402   -1.8365086558   -0.2780211218
H        1.0445225517   -0.6603517769    0.8777555207
H        0.7101496873   -0.1673851312   -0.7864679284
H        3.2103796386   -0.3813545322    1.7334522322
H        4.8450452466    0.1059016200    1.2955055569
H        3.5223432044    1.2666420077    1.2067146269
H        2.8671325878   -2.2147963691    0.0205456009
H        2.5130742377   -1.7046025512   -1.6224854745
H        4.4678560584   -0.5036005291   -0.9100836563
H        3.1568178805    0.6486839995   -1.0193548517
14   
torsion grid (15,)
C        1.0969358418   -0.9497717745   -0.1626027618
C        3.7848949388    0.2137327994    1.0185547965
C        2.5129226659   -1.3614650088   -0.5853000551
C        3.5475297764   -0.2343522703   -0.4421316788
H        0.3894726235   -1.7784108781   -0.2762683440
H        1.0656279589   -0.6298289856    0.8846581821
H        0.7343621580   -0.1145643357   -0.7737643455
H        3.3796828457   -0.5144819141    1.7302421087
H        4.8479341717    0.3482436691    1.2393891340
H        3.2848187137    1.1630877883    1.2375873942
H        2.8394658729   -2.2232352494    0.0119420670
H        2.4922262690   -1.6998364935   -1.6290553631
H        4.4927545681   -0.5839606857   -0.8741550854
H        3.2374154342    0.6227238620   -1.0527924582
14   
torsion grid (30,)
C        1.0954576104   -0.9190215688   -0.1618584381
C        3.7776484521    0.2019346954    1.0145819487
C        2.5011768288   -1.3658809156   -0.5835232009
C        3.5674785408   -0.2694516547   -0.4371481069
H        0.3639320010   -1.7227842861   -0.2992281121
H        1.0663014729   -0.6224702770    0.8920990831
H        0.7628516246   -0.0596545604   -0.7564987363
H        3.5725096224   -0.6065699099    1.7262808137
H        4.7964785855    0.5635337255    1.1836353388
H        3.0938237715    1.0175550453    1.2742002890
H        2.8031581391   -2.2366205613    0.0136345081
H        2.4742042694   -1.7024309919   -1.6276675507
H        4.5138580202   -0.6626718530   -0.8288911362
H        3.3083131308    0.5860916803   -1.0738858855
14   
torsion grid (45,)
C        1.0778593522   -0.8939915619   -0.1698712064
C        3.7726679227    0.1897102978    1.0284465022
C        2.4818993096   -1.3742814845   -0.5596165823
C        3.5708345325   -0.3001768426   -0.4133570094
H        0.3302939173   -1.6766943886   -0.3387702832
H        1.0256094947   -0.6114886328    0.8867794324
H        0.7840717283   -0.0189165457   -0.7621240124
H        3.8007454539   -0.6536148154    1.7291249371
H        4.7058320057    0.7528676858    1.1337287800
H        2.9558958478    0.8447154645    1.3497043121
H        2.7529554059   -2.2444223268    0.0532787529
H        2.4657122227   -1.7243506730   -1.5995490572
H        4.5163963340   -0.7139056127   -0.7861084259
H        3.3338836975    0.5531503906   -1.0626458191
14   
torsion grid (60,)
C        1.0645201784   -0.8637757041   -0.1990884487
C        3.7920462553    0.1750399967    1.0343761599
C        2.4687193645   -1.3778372109   -0.5423049294
C        3.5773886212   -0.3223886460   -0.4009699644
H        0.3075249585   -1.6341748634   -0.3817202809
H        0.9837023226   -0.5678861606    0.8518595242
H        0.8058727632    0.0091299270   -0.8106024991
H        4.0698090642   -0.6519082554    1.6990009336
H        4.5971197309    0.9167364758    1.0768810181
H        2.8916880335    0.6448060035    1.4431390676
H        2.7079925574   -2.2394835253    0.0957233089
H        2.4686420366   -1.7524045054   -1.5737412684
H        4.5182176723   -0.7433846399   -0.7773440778
H        3.3425718266    0.5314758494   -1.0509779850
14   
torsion grid (75,)
C        1.0476350077   -0.8221528242   -0.2352926534
C        3.8171074336    0.1458424638    1.0582233809
C        2.4499872664   -1.3772003473   -0.5163795952
C        3.5753986318   -0.3379765153   -0.3794578075
H        0.2824306849   -1.5910121426   -0.3876832425
H        0.9474289801   -0.4610444690    0.7934127785
H        0.8168085247    0.0152859768   -0.9045686291
H        4.3405331355   -0.6158028417    1.6477154635
H        4.4489264097    1.0412079522    1.0672707503
H        2.8851879970    0.3994011838    1.5724890713
H        2.6511753853   -2.2223832742    0.1560923174
H        2.4703297386   -1.7865495701   -1.5342863008
H        4.5075925830   -0.7564509178   -0.7781111089
H        3.3310453678    0.5228292313   -1.0166858286
14   
torsion grid (90,)
C        1.0414027204   -0.7917220742   -0.2645969676
C        3.8308348955    0.1235268789    1.0698787650
C        2.4367829800   -1.3835949484   -0.5001644132
C        3.5762376130   -0.3578936930   -0.3716392393
H        0.2642209881   -1.5549242387   -0.3804283161
H        0.9387444132   -0.3698548663    0.7407725453
H        0.8314934063    0.0102923905   -0.9822719519
H        4.5649372948   -0.5117947823    1.5774151633
H        4.2418047971    1.1391298283    1.0808531581
H        2.9160212850    0.1383519152    1.6698684312
H        2.6094223006   -2.2099326258    0.2030460208
H        2.4679285442   -1.8263856944   -1.5036492231
H        4.4999505551   -0.7822680941   -0.7817870203
H        3.3311480560    0.5033287951   -1.0073135588
14   
torsion grid (105,)
C        1.0470679136   -0.7408111517   -0.2803998466
C        3.8362530461    0.1039817523    1.0784442918
C        2.4238786023   -1.3791994083   -0.5032330234
C        3.5915232295   -0.3872901378   -0.3672717691
H        0.2455547848   -1.4806675352   -0.3812286719
H        0.9599235913   -0.2956183893    0.7166308616
H        0.8628911721    0.0537063013   -1.0132842574
H        4.7197876078   -0.3696674162    1.5185604690
H        4.0095765353    1.1845243648    1.1155898426
H        2.9850001972   -0.1068118395    1.7334255162
H        2.5658437430   -2.2067396873    0.2051444514
H        2.4496213674   -1.8266965845   -1.5048399057
H        4.5050948515   -0.8505014476   -0.7568246490
H        3.3881301634    0.4699309730   -1.0216702992
14   
torsion grid (120,)
C        1.0524912650   -0.7049916249   -0.2791139540
C        3.8210171748    0.1021329658    1.0778452998
C        2.4108347823   -1.3801945289   -0.5070183350
C        3.6039935215   -0.4215430729   -0.3633588667
H        0.2291803553   -1.4196977834   -0.3858670846
H        0.9807549531   -0.2661576221    0.7220650611
H        0.8915456492    0.1013094358   -1.0046496704
H        4.8071781904   -0.1747457739    1.4634184551
H        3.7387534371    1.1914825571    1.1410834230
H        3.0825126046   -0.3143481265    1.7716291211
H        2.5318948555   -2.2133883351    0.1982895789
H        2.4257204820   -1.8229989922   -1.5109972124
H        4.5087666584   -0.9374883116   -0.7046793451
H        3.4624534393    0.4197831012   -1.0530378013
14   
torsion grid (135,)
C        1.0625786976   -0.6688738391   -0.2791999434
C        3.8106991939    0.1044857526    1.0679649507
C        2.4031896414   -1.3771877213   -0.5116785576
C        3.6197463967   -0.4504594981   -0.3623858613
H        0.2205691658   -1.3606151528   -0.3913852538
H        1.0041436952   -0.2370507803    0.7258831610
H        0.9224891077    0.1474615717   -0.9978987554
H        4.8554070842    0.0429728561    1.3886690811
H        3.4842817732    1.1443652310    1.1628399268
H        3.2343550296   -0.4810165376    1.7942188485
H        2.5040793017   -2.2141790990    0.1920957382
H        2.4078902080   -1.8174383366   -1.5169376803
H        4.5139721557   -1.0125101955   -0.6566546657
H        3.5360827808    0.3762969018   -1.0788989470
14   
torsion grid (150,)
C        1.0666917089   -0.6396964140   -0.2816438558
C        3.8018213859    0.0924878276    1.0648607980
C        2.3903537879   -1.3806533960   -0.5102382008
C        3.6315352017   -0.4891000027   -0.3515953100
H        0.2079488363   -1.3051788390   -0.4220956838
H        1.0049743522   -0.2300980539    0.7322834167
H        0.9595174932    0.1963006650   -0.9833287388
H        4.8574230565    0.2493870674    1.3094257997
H        3.2709652862    1.0403122932    1.1954453526
H        3.4126526106   -0.6053824740    1.8168644621
H        2.4651173215   -2.2215341531    0.1921425874
H        2.3895414925   -1.8184479339   -1.5165328130
H        4.5152509132   -1.0893263308   -0.6009738927
H        3.5994161508    0.3233351124   -1.0889801161
14   
torsion grid (165,)
C        1.0546929641   -0.6124384630   -0.2938294584
C        3.7944813455    0.0791062396    1.0800588243
C        2.3673715526   -1.3820405658   -0.4895425251
C        3.6270374463   -0.5176623605   -0.3253242283
H        0.1871678883   -1.2577439955   -0.4698869379
H        0.9672268100   -0.2132591454    0.7220892963
H        0.9880432070    0.2329210909   -0.9893544555
H        4.8114495331    0.4564730456    1.2316672164
H        3.0973102231    0.9026841798    1.2643449288
H        3.6163152857   -0.6831081006    1.8486537395
H        2.4107499525   -2.2165754262    0.2231484980
H        2.3735643518   -1.8324602525   -1.4902620065
H        4.5033791652   -1.1361217903   -0.5569058053
H        3.6172983788    0.2892890107   -1.0700979559
14   
torsion grid (180,)
C        1.0484069013   -0.5804741628   -0.3236606585
C        3.8114538131    0.0559864505    1.0945286743
C        2.3496075625   -1.3799218279   -0.4708266456
C        3.6264604793   -0.5397861740   -0.3070261959
H        0.1742160472   -1.2125364589   -0.5139699530
H        0.9375215259   -0.1625411472    0.6821221530
H        1.0177210483    0.2536072487   -1.0351078722
H        4.7342802452    0.6431451650    1.1546763627
H        2.9853820615    0.7218890261    1.3647116607
H        3.8642161676   -0.7328618475    1.8543671053
H        2.3598488021   -2.1984821759    0.2617086545
H        2.3655445466   -1.8551264146   -1.4598103932
H        4.4957160017   -1.1650450936   -0.5469324592
H        3.6185114594    0.2705083648   -1.0487234805
