24   
torsion grid (-165,)
C        0.6955534949   -2.8885567912    1.4508366295
C        1.7421623884   -1.5108357742   -0.3262941861
C       -1.4298445769   -0.5556455121    6.2210639733
C       -0.2511811226   -2.4406415859    3.7388830185
C       -0.2044158403   -0.9116597968    3.7214225162
C       -0.5359506783   -3.0612819731    2.3572244533
N       -0.9141199913   -4.4672225239    2.5297156644
N        0.6285569966   -1.8699718460    0.5425691239
O        1.6736529587   -3.6297945884    1.5591480721
S        0.1221831347   -0.1439558427    5.3511007867
H        2.2802855466   -0.6321657969    0.0489762601
H        1.3802960058   -1.3035983208   -1.3377064831
H        2.4309978402   -2.3554932727   -0.3550098801
H       -1.4021073072   -0.0324908653    7.1799678794
H       -1.5219489778   -1.6276845306    6.4104898418
H       -2.2979908157   -0.2040806691    5.6552779129
H        0.6922860654   -2.8377878245    4.1277561212
H       -1.0497791567   -2.7850203780    4.4022816199
H       -1.1392548596   -0.4977427166    3.3231197335
H        0.6100703178   -0.5522476191    3.0844219946
H       -1.3981944510   -2.5446585694    1.9142064856
H       -0.0791360951   -4.9731217416    2.8305287266
H       -1.1513768840   -4.8636446315    1.6200546295
H       -0.1930459358   -1.2806065485    0.5458762505
24   
torsion grid (-150,)
C        0.7978076364   -2.9476182696    1.1620027924
C        1.9588281774   -1.5720409180   -0.5460018083
C       -1.1311466751   -0.9004387045    6.2197723444
C       -0.0531729645   -2.4589073272    3.4810083833
C       -0.2263760001   -0.9412028908    3.5646907945
C       -0.4222211179   -3.0377683762    2.0949290200
N       -0.9227925180   -4.4067505571    2.2481928365
N        0.8605328956   -1.8309212794    0.3763993409
O        1.6707934685   -3.8165647345    1.1673299582
S        0.2094657738   -0.2136468965    5.1869168467
H        2.2742176130   -0.5267211783   -0.4746312049
H        1.6755201989   -1.7911035173   -1.5823179192
H        2.7904039014   -2.2197699152   -0.2674934451
H       -1.0520111125   -0.4215676997    7.1987127032
H       -1.0358936804   -1.9809623792    6.3500428113
H       -2.1103695165   -0.6647202275    5.7922936035
H        0.9718249388   -2.7370453554    3.7457182922
H       -0.7193195048   -2.9439302224    4.2004572364
H       -1.2565006175   -0.6561241961    3.3189958264
H        0.4346190258   -0.4339559973    2.8537927018
H       -1.2463625686   -2.4410713764    1.6807204902
H       -0.1312604787   -4.9927474842    2.5210251505
H       -1.2061783018   -4.7608991129    1.3340705536
H        0.0641057508   -1.2081517717    0.3671317518
24   
torsion grid (-135,)
C        1.1290281948   -2.5281614214    1.8160322716
C       -0.1910355712   -2.1778793132   -0.2594066323
C       -0.5829291410   -0.8398373981    7.1242807582
C        0.6069453078   -1.8242319107    4.1770781303
C       -0.8756957847   -1.9025256196    4.5460804286
C        1.0659193856   -3.0041270892    3.2777333312
N        2.3408154739   -3.5398735669    3.7601415061
N       -0.0317822875   -2.6590859194    1.1066647706
O        2.1554034015   -2.0346559629    1.3470697293
S       -1.4839713423   -0.5120721461    5.5696809115
H       -0.9071369653   -1.3496683539   -0.3072377229
H       -0.5319043227   -2.9839710761   -0.9175238886
H        0.7820023929   -1.8246392861   -0.6013647554
H       -0.9727629498   -0.1408985666    7.8681256519
H        0.4916110670   -0.6742862408    7.0173907902
H       -0.7666501009   -1.8608846612    7.4714931417
H        0.8215874762   -0.8631528888    3.7003281671
H        1.2099546765   -1.8770262533    5.0877850992
H       -1.0938694331   -2.8438746271    5.0637787670
H       -1.5026506303   -1.8686848520    3.6476278357
H        0.3283575557   -3.8133427128    3.3623998040
H        3.0610374981   -2.8443910747    3.5548233713
H        2.5948009566   -4.3493866161    3.1929741800
H       -0.8235309070   -3.0922489022    1.5624129381
24   
torsion grid (-120,)
C        1.1248165176   -2.5712888276    1.7956611350
C       -0.1037412591   -2.1036999495   -0.3125935560
C       -0.4743001844   -0.7852655242    7.1373423850
C        0.4626133012   -1.8330503746    4.1118712714
C       -0.9278359106   -2.0870867015    4.6973320078
C        0.9720080369   -3.0300474221    3.2571160286
N        2.2155971836   -3.5599487636    3.8182680780
N       -0.0195231741   -2.6136194521    1.0497486043
O        2.2022679028   -2.1659202137    1.3583995449
S       -1.5999629780   -0.7115707274    5.7007802778
H       -0.7188582622   -1.1977252122   -0.3617903061
H       -0.5261515062   -2.8596098127   -0.9826016310
H        0.9078607302   -1.8616153191   -0.6390107616
H       -0.8638902170   -0.0846590091    7.8797132287
H        0.5436784438   -0.4877267266    6.8751972120
H       -0.4651847508   -1.7892372302    7.5714957218
H        0.4447530412   -0.9079456156    3.5280715393
H        1.1820360777   -1.6900940032    4.9220421385
H       -0.9280748259   -3.0010419127    5.3023580671
H       -1.6648479105   -2.2258636297    3.8976450987
H        0.2281818187   -3.8361982757    3.2992187006
H        2.9546195339   -2.8871355861    3.6050613451
H        2.4777584997   -4.4020705020    3.3052275468
H       -0.8647834272   -2.9478302627    1.4931403855
24   
torsion grid (-105,)
C        1.0977669555   -2.5472839768    1.7645160304
C        0.0267256635   -2.0706508632   -0.4247599719
C       -0.3281780971   -0.7446432172    7.1521254003
C        0.2975122359   -1.8178023011    4.0375153179
C       -0.9485006131   -2.1986306134    4.8392892463
C        0.8413728865   -3.0158044381    3.2089309850
N        2.0466602229   -3.5527091836    3.8425406610
N        0.0127111432   -2.5930658601    0.9353870356
O        2.2026585755   -2.1346073049    1.4098057285
S       -1.6310841615   -0.8537751018    5.8767604742
H       -0.5800359682   -1.1615889400   -0.5095934031
H       -0.3496980682   -2.8190971104   -1.1295627040
H        1.0597310781   -1.8297797551   -0.6765385201
H       -0.6847510844   -0.0418557712    7.9089093470
H        0.6137492002   -0.3709886268    6.7435833671
H       -0.1650022141   -1.7180835746    7.6233384032
H        0.0545389377   -0.9680657477    3.3919660522
H        1.0960804878   -1.4921866732    4.7084606648
H       -0.7444981547   -3.0685260709    5.4737636877
H       -1.7681650743   -2.4711702943    4.1649103307
H        0.0874127187   -3.8131415657    3.1950158743
H        2.8063908077   -2.8996932544    3.6418605105
H        2.3142877344   -4.4179490729    3.3731029527
H       -0.8642828904   -2.9218243231    1.3172120084
24   
torsion grid (-90,)
C        1.0625970625   -2.5082971719    1.7627499542
C        0.1750731827   -2.0209824752   -0.5043509956
C       -0.1903733397   -0.7030572115    7.1414263028
C        0.1090420884   -1.8303843528    3.9848219304
C       -0.9526120047   -2.3077892615    4.9770851029
C        0.6991607799   -3.0103189811    3.1728652428
N        1.8607825850   -3.5541082872    3.8790626178
N        0.0565859679   -2.5685370797    0.8406900253
O        2.1825643766   -2.0598881157    1.5129879519
S       -1.6308977238   -0.9941060511    6.0568360831
H       -0.4445698057   -1.1249509610   -0.6267934313
H       -0.1206575522   -2.7650883102   -1.2509707003
H        1.2195996138   -1.7514305343   -0.6618310335
H       -0.5132335178   -0.0036661671    7.9162969758
H        0.6478481310   -0.2605081341    6.5977925228
H        0.1301469463   -1.6344119396    7.6167379007
H       -0.3414661546   -1.0856214107    3.3201868870
H        0.9341254165   -1.3351208709    4.5034822343
H       -0.5539341976   -3.1131669242    5.6030750481
H       -1.8212115475   -2.7057972461    4.4411538683
H       -0.0554059568   -3.8029530020    3.0893223966
H        2.6373984527   -2.9120057678    3.7109383088
H        2.1416916912   -4.4316724321    3.4420162368
H       -0.8420454486   -2.9234117912    1.1398133387
24   
torsion grid (-75,)
C        1.0255650524   -2.4943465494    1.7869090868
C        0.3079315432   -1.9893215615   -0.5368355361
C       -0.0416734565   -0.6265018381    7.0867027332
C       -0.0620515276   -1.8892736316    3.9581525489
C       -0.9117029988   -2.4136562300    5.1165537657
C        0.5732550541   -3.0431877088    3.1521531072
N        1.6869057341   -3.6126530150    3.9144956369
N        0.1002462893   -2.5659845204    0.7850106947
O        2.1453408301   -2.0014830167    1.6402244645
S       -1.5736424966   -1.1090298799    6.2174579026
H       -0.3417390559   -1.1215513878   -0.6999014345
H        0.1145011483   -2.7324393079   -1.3173120906
H        1.3478393670   -1.6679586537   -0.5985872453
H       -0.3281223704    0.0878453907    7.8623094249
H        0.6748493415   -0.1455880746    6.4160780916
H        0.4239987647   -1.4954309692    7.5601402288
H       -0.6850624748   -1.2653989238    3.3077446917
H        0.7482254289   -1.2517404704    4.3248700159
H       -0.3391173865   -3.1301528991    5.7128948159
H       -1.7963298928   -2.9334950226    4.7328404190
H       -0.1791105276   -3.8282683835    3.0012689266
H        2.4762432825   -2.9724242392    3.8097923593
H        1.9871552225   -4.4827139737    3.4759246221
H       -0.8046683546   -2.9623015003    1.0015110740
24   
torsion grid (-60,)
C        0.9757367680   -2.5095527948    1.7430118961
C        0.3565909036   -1.8258079155   -0.5622861597
C       -0.0254582164   -0.4727040365    6.8927587792
C       -0.1942113713   -2.0151566303    3.8965567863
C       -0.8144699317   -2.5499781778    5.1886722547
C        0.4577675586   -3.1311725719    3.0533417971
N        1.5208807701   -3.7856509200    3.8188135775
N        0.0818742610   -2.4775494747    0.7114843362
O        2.1176793445   -2.0533002001    1.6641184066
S       -1.5481406985   -1.2529902970    6.2533005606
H       -0.2635839238   -0.9315785077   -0.6936021521
H        0.1748551605   -2.5125011331   -1.3955394243
H        1.4062035898   -1.5311735871   -0.5640878533
H       -0.3339782019    0.2643746941    7.6380820202
H        0.5337924224    0.0399253554    6.1059668080
H        0.6155883632   -1.2158297282    7.3756965779
H       -0.9600350001   -1.4998511804    3.3067705026
H        0.5779733907   -1.2721975287    4.1259229574
H       -0.0765084953   -3.1161765418    5.7611233150
H       -1.6424774412   -3.2302356474    4.9604828556
H       -0.3065868811   -3.8858461148    2.8243184827
H        2.3282944791   -3.1593489346    3.8044344000
H        1.8250983703   -4.6218244261    3.3212170321
H       -0.8437063835   -2.8518977516    0.8726652441
24   
torsion grid (-45,)
C        0.9450225440   -2.5538871056    1.7819587171
C        0.4185952826   -1.6731251344   -0.4788932530
C       -0.0730648603   -0.3223040995    6.7448365661
C       -0.2756629562   -2.1499629743    3.9269648573
C       -0.6598899826   -2.6624231322    5.3166949996
C        0.3630759683   -3.2380084325    3.0322274111
N        1.3623957701   -4.0104615835    3.7721852002
N        0.0763317141   -2.3918738086    0.7412888680
O        2.1127159144   -2.1611250112    1.7570903037
S       -1.4925255804   -1.4046959674    6.3569156301
H       -0.1516292483   -0.7409855096   -0.5642064888
H        0.2252045834   -2.2925783562   -1.3608736118
H        1.4815393392   -1.4347543776   -0.4357102802
H       -0.4231853562    0.4139379630    7.4724280392
H        0.2940450780    0.2069886149    5.8618560323
H        0.7409869649   -0.8995858570    7.1930416920
H       -1.1563202974   -1.7341869898    3.4267383221
H        0.4420039522   -1.3272723031    4.0300431736
H        0.2123975068   -3.0509207046    5.8444815828
H       -1.3759969481   -3.4873822561    5.2383180661
H       -0.4288008771   -3.9373794856    2.7317151662
H        2.1952271087   -3.4242883761    3.8601011471
H        1.6583428198   -4.8000712840    3.1989594379
H       -0.8706681947   -2.7280850618    0.8551195644
24   
torsion grid (-30,)
C        0.9429733732   -2.6027252067    1.8102192548
C        0.5036756101   -1.5277745581   -0.3849615024
C       -0.1005407488   -0.2040357642    6.5575225086
C       -0.3466912190   -2.2698295230    3.9339001999
C       -0.4834660120   -2.7268473897    5.3883012980
C        0.2987738636   -3.3330786808    3.0012724964
N        1.2412226583   -4.1930183128    3.7185969490
N        0.1007320370   -2.3097635908    0.7763898263
O        2.1331830100   -2.2838910634    1.8258115291
S       -1.3642627624   -1.5186942765    6.4484174191
H       -0.0062491760   -0.5578294886   -0.4071917521
H        0.2839192533   -2.0684093662   -1.3114865392
H        1.5787308786   -1.3608016640   -0.3151099063
H       -0.4622197488    0.5254651446    7.2862688655
H        0.0506985208    0.3034017432    5.6014041893
H        0.8508552512   -0.6117531054    6.9119560149
H       -1.3275752105   -1.9857123289    3.5406054627
H        0.2701410868   -1.3639128282    3.9102729565
H        0.4911445396   -2.9448453796    5.8277629906
H       -1.0689391970   -3.6487074638    5.4536473198
H       -0.5041060846   -3.9861965166    2.6351364121
H        2.1023901456   -3.6591898413    3.8545876477
H        1.5083472397   -4.9632157140    3.1060912261
H       -0.8671438291   -2.5918221847    0.8572784292
24   
torsion grid (-15,)
C        0.9096932301   -2.6226103648    1.8931265548
C        0.5586167810   -1.4124331786   -0.2468780306
C       -0.1982380128   -0.0460992016    6.3807873120
C       -0.4653471703   -2.3537563877    3.9801790437
C       -0.3481662995   -2.6983858613    5.4672174228
C        0.2111674364   -3.3924750560    3.0262593568
N        1.1176938892   -4.2986481112    3.7336737576
N        0.1046205974   -2.2510565822    0.8547182139
O        2.1069793345   -2.3379345070    1.9570996482
S       -1.2515796596   -1.5289608554    6.5512928858
H        0.0812958318   -0.4260918559   -0.2189673970
H        0.3420349885   -1.8870811980   -1.2095242694
H        1.6366990547   -1.2864867989   -0.1451104183
H       -0.5595195297    0.6860474274    7.1070972554
H       -0.2609823562    0.3932199712    5.3819558398
H        0.8441960140   -0.2844835676    6.6121978615
H       -1.5216167391   -2.2480350672    3.7155865879
H       -0.0089252152   -1.3713295885    3.8182653705
H        0.6956899265   -2.7379579075    5.7857542138
H       -0.7774972291   -3.6810142088    5.6762670184
H       -0.5822566207   -4.0178979746    2.5994720664
H        1.9973041035   -3.8003815060    3.8840823556
H        1.3583696681   -5.0674162407    3.1087731916
H       -0.8735056522   -2.5048276258    0.8978625837
24   
torsion grid (0,)
C        0.8768072085   -2.6312620596    1.9571397777
C        0.6415621303   -1.3103215317   -0.1326562892
C       -0.2160755420    0.0342110251    6.2364501239
C       -0.5482532622   -2.4456567764    4.0216745542
C       -0.1680449592   -2.6733181524    5.4872341982
C        0.1183116976   -3.4491619986    3.0157015145
N        0.9868939269   -4.4226707144    3.6814672958
N        0.1273828598   -2.2000755194    0.9002440869
O        2.0714211819   -2.3604960443    2.0947265800
S       -1.0376799595   -1.5466727455    6.6403908303
H        0.1683528755   -0.3230027735   -0.0791291167
H        0.4724118978   -1.7339398773   -1.1280589056
H        1.7136133669   -1.1979064206    0.0303328355
H       -0.5550089518    0.7663362840    6.9735093146
H       -0.4811866683    0.3950579290    5.2393248585
H        0.8707473835   -0.0645030592    6.3138566068
H       -1.6366512183   -2.5118039505    3.9319499991
H       -0.2799128583   -1.4220583374    3.7427510250
H        0.9089216040   -2.5633881077    5.6424975497
H       -0.4346716184   -3.6831879284    5.8035794583
H       -0.6809669852   -4.0169658159    2.5264031949
H        1.8839272541   -3.9659171237    3.8557571831
H        1.1963842969   -5.1735768651    3.0246895012
H       -0.8527229950   -2.4490021376    0.8800561403
24   
torsion grid (15,)
C        0.8336316938   -2.6511442316    2.0213039467
C        0.7169439784   -1.2323389091   -0.0134801896
C       -0.2360291591    0.0786913156    6.1022441448
C       -0.6238829196   -2.5522368360    4.0627666051
C        0.0057362459   -2.6419282404    5.4552373724
C        0.0186655666   -3.5113068495    3.0029984912
N        0.8497697299   -4.5474553100    3.6211825354
N        0.1428004677   -2.1631803802    0.9492280149
O        2.0218985231   -2.3977017509    2.2313433792
S       -0.8045362402   -1.5561223512    6.6864296722
H        0.2469767491   -0.2446346786    0.0589339307
H        0.5996022795   -1.6095188614   -1.0346952482
H        1.7792186468   -1.1358343971    0.2118913132
H       -0.5498891510    0.8109898367    6.8501759305
H       -0.6796184273    0.3506694049    5.1408414720
H        0.8547735939    0.1024103513    6.0226697631
H       -1.6873695579   -2.7913823620    4.1616710024
H       -0.5721262532   -1.5216502531    3.6991010814
H        1.0721334857   -2.3951411648    5.4284568734
H       -0.0856833235   -3.6560373224    5.8469195570
H       -0.7902910003   -4.0126483924    2.4607017616
H        1.7559426849   -4.1267566758    3.8325142986
H        1.0447285328   -5.2681408497    2.9272556250
H       -0.8355674223   -2.4048719179    0.8639869701
24   
torsion grid (30,)
C        0.7935680882   -2.6493952366    2.0465380501
C        0.7757073454   -1.1250480547    0.0858264684
C       -0.2629218474    0.1111901034    5.9324592418
C       -0.6905499833   -2.6552463079    4.0659533078
C        0.1433806480   -2.5996115339    5.3483631960
C       -0.0691951403   -3.5495055061    2.9505809271
N        0.7174779520   -4.6497605831    3.5130507160
N        0.1493564160   -2.0892554055    0.9807950903
O        1.9787213118   -2.4312312344    2.3092296924
S       -0.5893142260   -1.5378811844    6.6467083234
H        0.3211554284   -0.1329085555    0.1888985077
H        0.6899753831   -1.4505641198   -0.9561159552
H        1.8303530730   -1.0605329199    0.3543471621
H       -0.5552180997    0.8482044962    6.6845026248
H       -0.8462740270    0.2897983430    5.0251648191
H        0.8019012369    0.2337403110    5.7138973205
H       -1.6758436675   -3.0549023374    4.3270087606
H       -0.8546503863   -1.6474034664    3.6714856844
H        1.1614220159   -2.2489602145    5.1484580935
H        0.2139754467   -3.5962637949    5.7876279284
H       -0.8879320542   -3.9789702094    2.3625789791
H        1.6328735588   -4.2735658072    3.7636560824
H        0.8990300749   -5.3343727641    2.7801773565
H       -0.8281839992   -2.3103475930    0.8456214735
24   
torsion grid (45,)
C        0.7912840336   -2.7007468900    2.0813875418
C        0.8364086475   -1.0223411652    0.2513395123
C       -0.3225289573    0.1479966367    5.7563839434
C       -0.7111088907   -2.7655059830    4.0958169588
C        0.2686868466   -2.5414117551    5.2507887361
C       -0.1163229625   -3.6069653913    2.9368259697
N        0.6037540346   -4.7732461844    3.4501533831
N        0.1623555777   -2.0071798678    1.0871347998
O        1.9972209051   -2.5959043927    2.3165347412
S       -0.4023031831   -1.4789453250    6.5823490208
H        0.4599184568   -0.0117465551    0.4469090914
H        0.7003148488   -1.2549776426   -0.8100100764
H        1.8996233375   -1.0564698872    0.4903934718
H       -0.6069175698    0.8977379747    6.4987972078
H       -1.0145554590    0.2150703281    4.9123897393
H        0.6950458661    0.3587481495    5.4144748090
H       -1.5878656209   -3.2909054062    4.4871550317
H       -1.0608872812   -1.8062529971    3.6988235122
H        1.2112650401   -2.1089332429    4.9006615637
H        0.4973459586   -3.4959695164    5.7302636612
H       -0.9518465660   -3.9621128178    2.3220998008
H        1.5382619710   -4.4627385938    3.7195787233
H        0.7516647274   -5.4339477913    2.6884718745
H       -0.8335395547   -2.1393387410    0.9708988118
24   
torsion grid (60,)
C        0.8124719916   -2.7917721270    2.1022895862
C        0.9388680070   -0.9680570255    0.4193992686
C       -0.4355197352    0.1805509831    5.6619898763
C       -0.6692600683   -2.8322654826    4.1521256084
C        0.4239628847   -2.4330483559    5.1467530252
C       -0.1425957428   -3.6540774113    2.9527481727
N        0.4826745953   -4.8942805439    3.4137230318
N        0.2057698043   -1.9198146323    1.2435847626
O        2.0361627604   -2.8738734792    2.2241486224
S       -0.1858727095   -1.4044695179    6.5336666096
H        0.7330492567    0.0640414451    0.7257054178
H        0.6761138931   -1.0858555531   -0.6371198042
H        2.0025868199   -1.1696774018    0.5472127792
H       -0.7152478519    0.9192270206    6.4171307483
H       -1.2378766208    0.1211378824    4.9214111239
H        0.4895757660    0.5064312030    5.1770838366
H       -1.4194855646   -3.4369469546    4.6694414967
H       -1.1742978165   -1.9352800318    3.7756128086
H        1.2462596542   -1.9048235627    4.6549005087
H        0.8438562392   -3.3252085436    5.6193644052
H       -1.0127320035   -3.9242062138    2.3415503988
H        1.4425147881   -4.6739473219    3.6836714065
H        0.5763033463   -5.5305494897    2.6230473363
H       -0.8048280882   -1.9137398967    1.2058157474
24   
torsion grid (75,)
C        0.8335939929   -2.9770534403    2.1448557871
C        1.0996948084   -1.0620541841    0.5838784849
C       -0.5841010350    0.1050060525    5.6569940039
C       -0.6138426918   -2.9447317632    4.2303026080
C        0.5532572193   -2.3779465495    5.0434219894
C       -0.1784936682   -3.7702394488    2.9962462533
N        0.3236005934   -5.0819172380    3.4060133760
N        0.2989177213   -1.9604315074    1.4049553198
O        2.0386822239   -3.2302732469    2.1700110470
S        0.0291246894   -1.3956073511    6.4976734537
H        0.9927894928   -0.0239665139    0.9177865272
H        0.8097258917   -1.1293409031   -0.4703832233
H        2.1426920504   -1.3627399184    0.6850010787
H       -0.8211692204    0.8327466581    6.4369024419
H       -1.4903458035   -0.0882565095    5.0765544468
H        0.1877832317    0.5275383067    5.0064720925
H       -1.2250776975   -3.5935555750    4.8625838216
H       -1.2516753895   -2.1176789951    3.8970216575
H        1.2122585592   -1.7595450465    4.4271086465
H        1.1644450156   -3.1864848364    5.4553909723
H       -1.0804343822   -3.9416467921    2.3950913394
H        1.2908585212   -4.9642525802    3.7116435179
H        0.3906986483   -5.6788230894    2.5823002126
H       -0.7039859392   -1.8318201337    1.4260774969
24   
torsion grid (90,)
C        0.8422814558   -2.9927907834    2.1174700068
C        1.2353304945   -1.1099760260    0.5434011918
C       -0.7440697466    0.0849747386    5.8099127478
C       -0.5408188899   -2.8708880900    4.2529626857
C        0.6636316929   -2.1483157656    4.8664037402
C       -0.2202028781   -3.6994453743    2.9798968077
N        0.1460166724   -5.0689763119    3.3444577833
N        0.3763177386   -1.9476767998    1.3695217330
O        2.0252091126   -3.3336093752    2.1373649532
S        0.2864004452   -1.2860448864    6.4372362524
H        1.2137542746   -0.0680941934    0.8822585684
H        0.9293844683   -1.1496420203   -0.5076662008
H        2.2528256593   -1.4913276455    0.6318247149
H       -0.9210952164    0.7598958419    6.6508624086
H       -1.7102441429   -0.2625561608    5.4346916871
H       -0.2186800173    0.6367132768    5.0241406059
H       -0.9832268155   -3.5537826913    4.9820644190
H       -1.3040006590   -2.1241305893    4.0058633994
H        1.0923979761   -1.4230490425    4.1686795691
H        1.4606024444   -2.8546286975    5.1174010066
H       -1.1474430947   -3.7682173736    2.3971666693
H        1.0843472019   -5.0462789118    3.7473655950
H        0.2541024937   -5.6161552086    2.4903151324
H       -0.6146287706   -1.7469773487    1.3972533705
24   
torsion grid (105,)
C        0.8611993609   -3.0177329049    2.1224665641
C        1.3758403912   -1.2217559919    0.4845260325
C       -0.8505531325    0.0140427746    5.9609156469
C       -0.4687689920   -2.8630650952    4.3034211250
C        0.7058001403   -1.9853087946    4.7525736538
C       -0.2517839922   -3.6519657365    2.9757650635
N       -0.0086083389   -5.0665310765    3.2705364875
N        0.4583982132   -1.9930953369    1.3124747192
O        2.0298449913   -3.3988652079    2.1973379785
S        0.4513871887   -1.1947018355    6.3844518919
H        1.3690174492   -0.1639482041    0.7702179526
H        1.1146480171   -1.3068802851   -0.5759001171
H        2.3772049356   -1.6248836516    0.6372050201
H       -0.9909708098    0.6499002980    6.8384340279
H       -1.8026471864   -0.4690898319    5.7265455074
H       -0.5380115598    0.6425921178    5.1211171929
H       -0.7029634767   -3.5967959083    5.0781885772
H       -1.3541031883   -2.2279033085    4.1945526842
H        0.9235312120   -1.2017950823    4.0202379516
H        1.6187602830   -2.5769910344    4.8637828366
H       -1.1882155474   -3.6097267317    2.4061576212
H        0.9212315218   -5.1411875545    3.6877027219
H        0.0652648543   -5.5781588829    2.3906378916
H       -0.5255646701   -1.7600557104    1.2928985353
24   
torsion grid (120,)
C        0.8809124161   -3.0381248709    2.1245812229
C        1.5124773722   -1.3412610556    0.4240574636
C       -0.9487354849   -0.0580376097    6.0947811756
C       -0.3882431547   -2.8519118950    4.3470883418
C        0.6991763416   -1.8135022125    4.6482298216
C       -0.2757971813   -3.5941030635    2.9752012367
N       -0.1431996481   -5.0351285683    3.2104391939
N        0.5419089666   -2.0378710203    1.2577396644
O        2.0306145118   -3.4646679038    2.2443619319
S        0.5584558671   -1.0658884221    6.3134890364
H        1.5452250441   -0.2734629332    0.6675556254
H        1.2733774973   -1.4584305860   -0.6384773939
H        2.4910021697   -1.7806165555    0.6188905578
H       -1.0573527064    0.5499842633    6.9962483755
H       -1.8446744417   -0.6737577057    5.9813085416
H       -0.8475764612    0.6100076979    5.2336610465
H       -0.3783134921   -3.6163536477    5.1276936640
H       -1.3690239848   -2.3703544820    4.4034923710
H        0.7046206384   -1.0061684304    3.9083571671
H        1.6907401268   -2.2729884434    4.6272192890
H       -1.2121620348   -3.4463480616    2.4242474295
H        0.7932214471   -5.1980960021    3.5856696003
H       -0.1540450956   -5.5212930288    2.3131950783
H       -0.4288794791   -1.7592820465    1.2074332136
24   
torsion grid (135,)
C        0.9190820669   -3.0069374181    2.0873878932
C        1.6477146922   -1.3951037758    0.3443583657
C       -1.0198583304   -0.1339893591    6.2203868765
C       -0.2799996062   -2.7954255302    4.3397791581
C        0.6607962226   -1.5975260958    4.5115727778
C       -0.2688584842   -3.4895518561    2.9415125485
N       -0.2291248679   -4.9426084000    3.1331021620
N        0.6361289914   -2.0219818771    1.1847733935
O        2.0465507009   -3.4836819098    2.2324069099
S        0.6441553856   -0.8857259605    6.1982893813
H        1.7538370055   -0.3308234747    0.5826063131
H        1.3950585890   -1.5010597023   -0.7160388517
H        2.5954164247   -1.8982683134    0.5371246764
H       -1.0962331245    0.4402664452    7.1469684293
H       -1.8123914944   -0.8865660604    6.2118624974
H       -1.1493986176    0.5489809483    5.3749432539
H       -0.0047545913   -3.5524898173    5.0787667752
H       -1.3082464556   -2.5051278960    4.5721828918
H        0.4381516142   -0.7953937243    3.7989929664
H        1.6977906483   -1.8995605647    4.3447729698
H       -1.2004322280   -3.2493951197    2.4155645964
H        0.7134234138   -5.1789192574    3.4483931480
H       -0.3345654659   -5.4045765009    2.2294772107
H       -0.3163970498   -1.6878731491    1.1264851893
24   
torsion grid (150,)
C        0.6027954513   -2.7320478708    1.5241103194
C        1.3816713895   -1.1265731821   -0.1991936429
C       -1.4054446656   -0.1599971541    5.9344701489
C       -0.5084000967   -2.5698032334    3.8051838316
C        0.2164300326   -1.2241446576    3.9026486887
C       -0.5914020790   -3.1886081942    2.3838173614
N       -0.6167030218   -4.6486930339    2.5116059691
N        0.3455376455   -1.7410710072    0.6210248615
O        1.7164632770   -3.2430342436    1.6606966530
S        0.3433031239   -0.5738999497    5.6100044431
H        1.6878597751   -0.1528950880    0.2016085266
H        1.0242976336   -0.9955090171   -1.2249034788
H        2.2458556700   -1.7912910714   -0.2001791339
H       -1.4342716077    0.3621307651    6.8939799004
H       -2.0331257345   -1.0518047285    6.0046715425
H       -1.7974558732    0.5082662265    5.1613927113
H        0.0250199781   -3.2813109468    4.4426498197
H       -1.5236507577   -2.5008437293    4.2048892884
H       -0.2563983720   -0.4563288286    3.2785677378
H        1.2521772028   -1.3247625494    3.5680954861
H       -1.5242372255   -2.8709272492    1.9021712779
H        0.3270560996   -4.9442024588    2.7663431194
H       -0.7982524878   -5.0660605806    1.5987828815
H       -0.5831964354   -1.3418802667    0.6041605374
24   
torsion grid (165,)
C        0.6492002863   -2.8287050381    1.5292281373
C        1.5116734540   -1.3441268335   -0.2580165152
C       -1.4391678746   -0.3078635669    6.0054297415
C       -0.3910773173   -2.6032078179    3.8176893299
C        0.1346107552   -1.1663551998    3.8455288070
C       -0.5654759662   -3.1934523727    2.4017969186
N       -0.7181573966   -4.6470839237    2.5192312863
N        0.4405874406   -1.8712390729    0.5780987728
O        1.7368873211   -3.3847765769    1.6948827926
S        0.3160114504   -0.4689156464    5.5287273896
H        1.8912128997   -0.3895006365    0.1258316519
H        1.1543743236   -1.2017468459   -1.2820355834
H        2.3264564432   -2.0686142724   -0.2568383283
H       -1.4596893879    0.2184129984    6.9628798714
H       -1.9214748953   -1.2801929734    6.1322943349
H       -1.9902952705    0.2850315475    5.2688527073
H        0.3169807218   -3.2360580735    4.3624490164
H       -1.3523359988   -2.6861657411    4.3316467082
H       -0.5019524534   -0.4909344289    3.2601046650
H        1.1401846125   -1.1186670545    3.4186876375
H       -1.4804091071   -2.7878038490    1.9514209694
H        0.1928435071   -5.0265465136    2.7810065328
H       -0.9282568557   -5.0419941921    1.6026182760
H       -0.4611704511   -1.4147312365    0.5522755045
24   
torsion grid (180,)
C        0.6713502785   -2.8452386528    1.4487609019
C        1.5975093047   -1.3872894474   -0.3309796278
C       -1.4577772015   -0.4968674958    6.1046536685
C       -0.3001128963   -2.5669723907    3.7524620860
C       -0.0092346344   -1.0652519553    3.7689743314
C       -0.5471841096   -3.1353012460    2.3425779478
N       -0.8132965109   -4.5730688976    2.4536034198
N        0.5123797013   -1.8532029887    0.5230459733
O        1.7175438275   -3.4835730847    1.5786144410
S        0.2384238660   -0.3637292883    5.4418497812
H        2.0225358653   -0.4450366417    0.0351347066
H        1.2389246910   -1.2440373004   -1.3546757398
H        2.3781897285   -2.1482971688   -0.3250317465
H       -1.4591513284    0.0104665124    7.0724641618
H       -1.7594326642   -1.5361972497    6.2553941118
H       -2.1738127152    0.0042647987    5.4460309800
H        0.5455479178   -3.0997137728    4.1998806211
H       -1.1851219130   -2.8001212706    4.3508259696
H       -0.8087959202   -0.5007474458    3.2723140984
H        0.9222644580   -0.8442114688    3.2395157411
H       -1.4419930317   -2.6593207114    1.9201068259
H        0.0672519882   -5.0269494374    2.7016632712
H       -1.0612423019   -4.9425572614    1.5357727366
H       -0.3559148731   -1.3350667901    0.5262016334
