32
1 1 C11H18NO2
C                    -0.476614038334    -2.043989320973    -0.310538835281
C                     0.067826574588    -2.226612313454    -1.719650745270
H                    -0.719962692832    -2.550942602242    -2.404360012168
C                     0.784343545889    -0.997728673272    -2.306083988199
C                     1.458748584180    -1.310056910707    -3.624076720822
C                     0.695960918507    -1.536635209135    -4.787983347485
C                     1.301530442357    -1.893533825772    -5.984132461131
C                     2.702953952527    -2.037177794252    -6.059812025526
C                     3.479171807717    -1.802337023401    -4.913135011959
C                     2.850412653683    -1.446718332974    -3.713139176874
O                     3.190261175301    -2.390060114614    -7.267234301835
C                     4.605999140691    -2.587939159075    -7.419296733596
C                     4.855476635683    -3.151776323438    -8.800653494681
O                     4.394377829744    -4.499969543438    -8.809761401783
N                     1.068945527496    -3.387826343592    -1.734381588870
H                     0.315528066193    -1.761062523911     0.391217034067
H                    -1.213218698262    -1.236817911608    -0.318045473311
H                    -0.977053878404    -2.943626319741     0.061354075830
H                     0.024621705428    -0.217655598057    -2.420112707545
H                     1.512246505725    -0.620657752570    -1.577868602138
H                    -0.385378553108    -1.414358093479    -4.761461483113
H                     0.716897798972    -2.060782167075    -6.883546692169
H                     4.559735897133    -1.875870906500    -4.943062851363
H                     3.471572314962    -1.239334826592    -2.842909434137
H                     5.125752472546    -1.629522055348    -7.298522126670
H                     4.967642958170    -3.298943982419    -6.667458527593
H                     5.935606185940    -3.094815990112    -8.999539827963
H                     4.332570212002    -2.536427641777    -9.545028418142
H                     4.469203704295    -4.849393346763    -9.711082612860
H                     0.620490855370    -4.295440762895    -1.567328466331
H                     1.795138250088    -3.258240703270    -1.019948030582
H                     1.542881024251    -3.400661695590    -2.655220686428
