32
1 1 C11H18NO2
C                    -0.499985689604    -2.086947006167    -0.237699116263
C                     0.105967768187    -2.278309005733    -1.620543939539
H                    -0.594399635412    -2.786452501801    -2.288519792228
C                     0.613034468008    -0.990740538948    -2.292273399644
C                     1.343571328033    -1.269045909718    -3.588123955453
C                     0.643071704216    -1.603387612195    -4.755542688929
C                     1.306374112493    -1.920116132765    -5.942825840585
C                     2.712181977565    -1.906088761475    -5.984096741670
C                     3.427912840243    -1.571044634460    -4.820182309642
C                     2.750483654736    -1.257454256460    -3.644995281171
O                     3.470397927854    -2.174993875901    -7.076503700641
C                     2.843940059673    -2.500302666269    -8.340341363583
C                     2.466642926297    -3.974895800406    -8.396162431292
O                     3.604051432770    -4.819228414802    -8.286691705766
N                     1.292956041134    -3.244928017553    -1.525811439635
H                     0.210906768251    -1.615068802237     0.449235843524
H                    -1.366607740248    -1.426369844650    -0.319482379942
H                    -0.844333969090    -3.029830345714     0.198688854931
H                    -0.265261253071    -0.359339822238    -2.458968512633
H                     1.258589103447    -0.446932864303    -1.592172849529
H                    -0.445344766452    -1.602566980052    -4.752747008683
H                     0.720411768489    -2.162928148654    -6.820728224243
H                     4.512027237775    -1.537361245559    -4.869200603220
H                     3.328699119549    -0.956130338497    -2.772398428228
H                     1.988010156281    -1.843590726225    -8.526380882889
H                     3.615702300959    -2.286526767974    -9.081512896924
H                     2.012377216343    -4.186659872781    -9.368368099219
H                     1.724055748666    -4.214235059099    -7.620411717868
H                     4.119992201576    -4.530635918433    -7.516391856285
H                     1.002233923998    -4.199788627083    -1.287294088402
H                     1.965076425612    -2.934455509343    -0.813912518475
H                     1.789278056989    -3.253500053353    -2.434191123270
