
  -OEChem-12122420533D

 32 32  0     1  0  0  0  0  0999 V2000
   -0.5000   -2.0869   -0.2377 C   0  0  0  0  0  0  0  0  0  0  0  0
    0.1060   -2.2783   -1.6205 C   0  0  1  0  0  0  0  0  0  0  0  0
   -0.5944   -2.7865   -2.2885 H   0  0  0  0  0  0  0  0  0  0  0  0
    0.6130   -0.9907   -2.2923 C   0  0  0  0  0  0  0  0  0  0  0  0
    1.3436   -1.2690   -3.5881 C   0  0  0  0  0  0  0  0  0  0  0  0
    0.6431   -1.6034   -4.7555 C   0  0  0  0  0  0  0  0  0  0  0  0
    1.3064   -1.9201   -5.9428 C   0  0  0  0  0  0  0  0  0  0  0  0
    2.7122   -1.9061   -5.9841 C   0  0  0  0  0  0  0  0  0  0  0  0
    3.4279   -1.5710   -4.8202 C   0  0  0  0  0  0  0  0  0  0  0  0
    2.7505   -1.2575   -3.6450 C   0  0  0  0  0  0  0  0  0  0  0  0
    3.4704   -2.1750   -7.0765 O   0  0  0  0  0  0  0  0  0  0  0  0
    2.8439   -2.5003   -8.3403 C   0  0  0  0  0  0  0  0  0  0  0  0
    2.4666   -3.9749   -8.3962 C   0  0  0  0  0  0  0  0  0  0  0  0
    3.6041   -4.8192   -8.2867 O   0  0  0  0  0  0  0  0  0  0  0  0
    1.2930   -3.2449   -1.5258 N   0  3  0  0  0  0  0  0  0  0  0  0
    0.2109   -1.6151    0.4492 H   0  0  0  0  0  0  0  0  0  0  0  0
   -1.3666   -1.4264   -0.3195 H   0  0  0  0  0  0  0  0  0  0  0  0
   -0.8443   -3.0298    0.1987 H   0  0  0  0  0  0  0  0  0  0  0  0
   -0.2653   -0.3593   -2.4590 H   0  0  0  0  0  0  0  0  0  0  0  0
    1.2586   -0.4469   -1.5922 H   0  0  0  0  0  0  0  0  0  0  0  0
   -0.4453   -1.6026   -4.7527 H   0  0  0  0  0  0  0  0  0  0  0  0
    0.7204   -2.1629   -6.8207 H   0  0  0  0  0  0  0  0  0  0  0  0
    4.5120   -1.5374   -4.8692 H   0  0  0  0  0  0  0  0  0  0  0  0
    3.3287   -0.9561   -2.7724 H   0  0  0  0  0  0  0  0  0  0  0  0
    1.9880   -1.8436   -8.5264 H   0  0  0  0  0  0  0  0  0  0  0  0
    3.6157   -2.2865   -9.0815 H   0  0  0  0  0  0  0  0  0  0  0  0
    2.0124   -4.1867   -9.3684 H   0  0  0  0  0  0  0  0  0  0  0  0
    1.7241   -4.2142   -7.6204 H   0  0  0  0  0  0  0  0  0  0  0  0
    4.1200   -4.5306   -7.5164 H   0  0  0  0  0  0  0  0  0  0  0  0
    1.0022   -4.1998   -1.2873 H   0  0  0  0  0  0  0  0  0  0  0  0
    1.9651   -2.9345   -0.8139 H   0  0  0  0  0  0  0  0  0  0  0  0
    1.7893   -3.2535   -2.4342 H   0  0  0  0  0  0  0  0  0  0  0  0
  1  2  1  0  0  0  0
  1 16  1  0  0  0  0
  1 17  1  0  0  0  0
  1 18  1  0  0  0  0
  2  3  1  0  0  0  0
  2  4  1  0  0  0  0
  2 15  1  0  0  0  0
  4  5  1  0  0  0  0
  4 19  1  0  0  0  0
  4 20  1  0  0  0  0
  5  6  2  0  0  0  0
  5 10  1  0  0  0  0
  6  7  1  0  0  0  0
  6 21  1  0  0  0  0
  7  8  2  0  0  0  0
  7 22  1  0  0  0  0
  8  9  1  0  0  0  0
  8 11  1  0  0  0  0
  9 10  2  0  0  0  0
  9 23  1  0  0  0  0
 10 24  1  0  0  0  0
 11 12  1  0  0  0  0
 12 13  1  0  0  0  0
 12 25  1  0  0  0  0
 12 26  1  0  0  0  0
 13 14  1  0  0  0  0
 13 27  1  0  0  0  0
 13 28  1  0  0  0  0
 14 29  1  0  0  0  0
 15 30  1  0  0  0  0
 15 31  1  0  0  0  0
 15 32  1  0  0  0  0
M  CHG  1  15   1
M  END
$$$$
