
  -OEChem-12102412493D

 32 32  0     1  0  0  0  0  0999 V2000
    0.3425    1.2458   -2.6813 C   0  0  0  0  0  0  0  0  0  0  0  0
   -0.4059   -0.0635   -2.4789 C   0  0  1  0  0  0  0  0  0  0  0  0
   -1.1662   -0.1975   -3.2528 H   0  0  0  0  0  0  0  0  0  0  0  0
    0.4802   -1.3148   -2.3891 C   0  0  0  0  0  0  0  0  0  0  0  0
    1.2081   -1.5632   -3.6920 C   0  0  0  0  0  0  0  0  0  0  0  0
    0.5486   -2.1519   -4.7765 C   0  0  0  0  0  0  0  0  0  0  0  0
    1.1941   -2.3560   -5.9989 C   0  0  0  0  0  0  0  0  0  0  0  0
    2.5357   -1.9676   -6.1473 C   0  0  0  0  0  0  0  0  0  0  0  0
    3.2082   -1.3764   -5.0623 C   0  0  0  0  0  0  0  0  0  0  0  0
    2.5496   -1.1790   -3.8547 C   0  0  0  0  0  0  0  0  0  0  0  0
    3.2615   -2.1236   -7.2823 O   0  0  0  0  0  0  0  0  0  0  0  0
    2.6588   -2.7795   -8.4157 C   0  0  0  0  0  0  0  0  0  0  0  0
    3.7459   -2.9183   -9.4680 C   0  0  0  0  0  0  0  0  0  0  0  0
    4.7874   -3.7887   -9.0483 O   0  0  0  0  0  0  0  0  0  0  0  0
   -1.2120    0.0426   -1.1644 N   0  3  0  0  0  0  0  0  0  0  0  0
    1.0771    1.4148   -1.8860 H   0  0  0  0  0  0  0  0  0  0  0  0
    0.8850    1.1930   -3.6267 H   0  0  0  0  0  0  0  0  0  0  0  0
   -0.3354    2.1039   -2.7320 H   0  0  0  0  0  0  0  0  0  0  0  0
    1.2035   -1.1870   -1.5740 H   0  0  0  0  0  0  0  0  0  0  0  0
   -0.1443   -2.1827   -2.1385 H   0  0  0  0  0  0  0  0  0  0  0  0
   -0.4853   -2.4781   -4.6745 H   0  0  0  0  0  0  0  0  0  0  0  0
    0.6535   -2.8222   -6.8139 H   0  0  0  0  0  0  0  0  0  0  0  0
    4.2480   -1.0899   -5.1876 H   0  0  0  0  0  0  0  0  0  0  0  0
    3.0932   -0.7320   -3.0249 H   0  0  0  0  0  0  0  0  0  0  0  0
    2.2974   -3.7701   -8.1173 H   0  0  0  0  0  0  0  0  0  0  0  0
    1.8230   -2.1763   -8.7934 H   0  0  0  0  0  0  0  0  0  0  0  0
    4.1312   -1.9239   -9.7329 H   0  0  0  0  0  0  0  0  0  0  0  0
    3.3107   -3.3646  -10.3661 H   0  0  0  0  0  0  0  0  0  0  0  0
    5.2248   -3.3815   -8.2837 H   0  0  0  0  0  0  0  0  0  0  0  0
   -1.8647    0.8360   -1.1790 H   0  0  0  0  0  0  0  0  0  0  0  0
   -0.5810    0.1781   -0.3646 H   0  0  0  0  0  0  0  0  0  0  0  0
   -1.7551   -0.8113   -0.9856 H   0  0  0  0  0  0  0  0  0  0  0  0
  1  2  1  0  0  0  0
  1 16  1  0  0  0  0
  1 17  1  0  0  0  0
  1 18  1  0  0  0  0
  2  3  1  0  0  0  0
  2  4  1  0  0  0  0
  2 15  1  0  0  0  0
  4  5  1  0  0  0  0
  4 19  1  0  0  0  0
  4 20  1  0  0  0  0
  5  6  2  0  0  0  0
  5 10  1  0  0  0  0
  6  7  1  0  0  0  0
  6 21  1  0  0  0  0
  7  8  2  0  0  0  0
  7 22  1  0  0  0  0
  8  9  1  0  0  0  0
  8 11  1  0  0  0  0
  9 10  2  0  0  0  0
  9 23  1  0  0  0  0
 10 24  1  0  0  0  0
 11 12  1  0  0  0  0
 12 13  1  0  0  0  0
 12 25  1  0  0  0  0
 12 26  1  0  0  0  0
 13 14  1  0  0  0  0
 13 27  1  0  0  0  0
 13 28  1  0  0  0  0
 14 29  1  0  0  0  0
 15 30  1  0  0  0  0
 15 31  1  0  0  0  0
 15 32  1  0  0  0  0
M  CHG  1  15   1
M  END
$$$$
