
  -OEChem-12122420533D

 32 32  0     1  0  0  0  0  0999 V2000
   -0.4766   -2.0440   -0.3105 C   0  0  0  0  0  0  0  0  0  0  0  0
    0.0678   -2.2266   -1.7197 C   0  0  1  0  0  0  0  0  0  0  0  0
   -0.7200   -2.5509   -2.4044 H   0  0  0  0  0  0  0  0  0  0  0  0
    0.7843   -0.9977   -2.3061 C   0  0  0  0  0  0  0  0  0  0  0  0
    1.4587   -1.3101   -3.6241 C   0  0  0  0  0  0  0  0  0  0  0  0
    0.6960   -1.5366   -4.7880 C   0  0  0  0  0  0  0  0  0  0  0  0
    1.3015   -1.8935   -5.9841 C   0  0  0  0  0  0  0  0  0  0  0  0
    2.7030   -2.0372   -6.0598 C   0  0  0  0  0  0  0  0  0  0  0  0
    3.4792   -1.8023   -4.9131 C   0  0  0  0  0  0  0  0  0  0  0  0
    2.8504   -1.4467   -3.7131 C   0  0  0  0  0  0  0  0  0  0  0  0
    3.1903   -2.3901   -7.2672 O   0  0  0  0  0  0  0  0  0  0  0  0
    4.6060   -2.5879   -7.4193 C   0  0  0  0  0  0  0  0  0  0  0  0
    4.8555   -3.1518   -8.8007 C   0  0  0  0  0  0  0  0  0  0  0  0
    4.3944   -4.5000   -8.8098 O   0  0  0  0  0  0  0  0  0  0  0  0
    1.0689   -3.3878   -1.7344 N   0  3  0  0  0  0  0  0  0  0  0  0
    0.3155   -1.7611    0.3912 H   0  0  0  0  0  0  0  0  0  0  0  0
   -1.2132   -1.2368   -0.3180 H   0  0  0  0  0  0  0  0  0  0  0  0
   -0.9771   -2.9436    0.0614 H   0  0  0  0  0  0  0  0  0  0  0  0
    0.0246   -0.2177   -2.4201 H   0  0  0  0  0  0  0  0  0  0  0  0
    1.5122   -0.6207   -1.5779 H   0  0  0  0  0  0  0  0  0  0  0  0
   -0.3854   -1.4144   -4.7615 H   0  0  0  0  0  0  0  0  0  0  0  0
    0.7169   -2.0608   -6.8835 H   0  0  0  0  0  0  0  0  0  0  0  0
    4.5597   -1.8759   -4.9431 H   0  0  0  0  0  0  0  0  0  0  0  0
    3.4716   -1.2393   -2.8429 H   0  0  0  0  0  0  0  0  0  0  0  0
    5.1258   -1.6295   -7.2985 H   0  0  0  0  0  0  0  0  0  0  0  0
    4.9676   -3.2989   -6.6675 H   0  0  0  0  0  0  0  0  0  0  0  0
    5.9356   -3.0948   -8.9995 H   0  0  0  0  0  0  0  0  0  0  0  0
    4.3326   -2.5364   -9.5450 H   0  0  0  0  0  0  0  0  0  0  0  0
    4.4692   -4.8494   -9.7111 H   0  0  0  0  0  0  0  0  0  0  0  0
    0.6205   -4.2954   -1.5673 H   0  0  0  0  0  0  0  0  0  0  0  0
    1.7951   -3.2582   -1.0199 H   0  0  0  0  0  0  0  0  0  0  0  0
    1.5429   -3.4007   -2.6552 H   0  0  0  0  0  0  0  0  0  0  0  0
  1  2  1  0  0  0  0
  1 16  1  0  0  0  0
  1 17  1  0  0  0  0
  1 18  1  0  0  0  0
  2  3  1  0  0  0  0
  2  4  1  0  0  0  0
  2 15  1  0  0  0  0
  4  5  1  0  0  0  0
  4 19  1  0  0  0  0
  4 20  1  0  0  0  0
  5  6  2  0  0  0  0
  5 10  1  0  0  0  0
  6  7  1  0  0  0  0
  6 21  1  0  0  0  0
  7  8  2  0  0  0  0
  7 22  1  0  0  0  0
  8  9  1  0  0  0  0
  8 11  1  0  0  0  0
  9 10  2  0  0  0  0
  9 23  1  0  0  0  0
 10 24  1  0  0  0  0
 11 12  1  0  0  0  0
 12 13  1  0  0  0  0
 12 25  1  0  0  0  0
 12 26  1  0  0  0  0
 13 14  1  0  0  0  0
 13 27  1  0  0  0  0
 13 28  1  0  0  0  0
 14 29  1  0  0  0  0
 15 30  1  0  0  0  0
 15 31  1  0  0  0  0
 15 32  1  0  0  0  0
M  CHG  1  15   1
M  END
$$$$
