
  -OEChem-12122420533D

 32 32  0     1  0  0  0  0  0999 V2000
   -0.5506   -3.3807   -2.3223 C   0  0  0  0  0  0  0  0  0  0  0  0
    0.3572   -2.3551   -1.6598 C   0  0  1  0  0  0  0  0  0  0  0  0
    1.3177   -2.8043   -1.3946 H   0  0  0  0  0  0  0  0  0  0  0  0
    0.5821   -1.0681   -2.4671 C   0  0  0  0  0  0  0  0  0  0  0  0
    1.3152   -1.3639   -3.7562 C   0  0  0  0  0  0  0  0  0  0  0  0
    0.6389   -1.4137   -4.9782 C   0  0  0  0  0  0  0  0  0  0  0  0
    1.3021   -1.7402   -6.1653 C   0  0  0  0  0  0  0  0  0  0  0  0
    2.6758   -2.0315   -6.1362 C   0  0  0  0  0  0  0  0  0  0  0  0
    3.3677   -1.9737   -4.9103 C   0  0  0  0  0  0  0  0  0  0  0  0
    2.6938   -1.6434   -3.7428 C   0  0  0  0  0  0  0  0  0  0  0  0
    3.4206   -2.3627   -7.2151 O   0  0  0  0  0  0  0  0  0  0  0  0
    2.7745   -2.4952   -8.4902 C   0  0  0  0  0  0  0  0  0  0  0  0
    3.7881   -3.0274   -9.4793 C   0  0  0  0  0  0  0  0  0  0  0  0
    4.0301   -4.3964   -9.1666 O   0  0  0  0  0  0  0  0  0  0  0  0
   -0.2693   -1.9628   -0.3024 N   0  3  0  0  0  0  0  0  0  0  0  0
   -1.5333   -2.9552   -2.5547 H   0  0  0  0  0  0  0  0  0  0  0  0
   -0.0934   -3.6906   -3.2635 H   0  0  0  0  0  0  0  0  0  0  0  0
   -0.6831   -4.2743   -1.7038 H   0  0  0  0  0  0  0  0  0  0  0  0
   -0.3878   -0.6034   -2.6836 H   0  0  0  0  0  0  0  0  0  0  0  0
    1.1585   -0.3562   -1.8602 H   0  0  0  0  0  0  0  0  0  0  0  0
   -0.4247   -1.1874   -5.0199 H   0  0  0  0  0  0  0  0  0  0  0  0
    0.7459   -1.7569   -7.0950 H   0  0  0  0  0  0  0  0  0  0  0  0
    4.4320   -2.1878   -4.9067 H   0  0  0  0  0  0  0  0  0  0  0  0
    3.2538   -1.5909   -2.8102 H   0  0  0  0  0  0  0  0  0  0  0  0
    1.9362   -3.1977   -8.4150 H   0  0  0  0  0  0  0  0  0  0  0  0
    2.4030   -1.5166   -8.8197 H   0  0  0  0  0  0  0  0  0  0  0  0
    4.7057   -2.4269   -9.4174 H   0  0  0  0  0  0  0  0  0  0  0  0
    3.3670   -2.9152  -10.4893 H   0  0  0  0  0  0  0  0  0  0  0  0
    4.7428   -4.7247   -9.7358 H   0  0  0  0  0  0  0  0  0  0  0  0
   -0.3984   -2.7781    0.3094 H   0  0  0  0  0  0  0  0  0  0  0  0
   -1.1924   -1.5335   -0.4424 H   0  0  0  0  0  0  0  0  0  0  0  0
    0.3142   -1.2803    0.1972 H   0  0  0  0  0  0  0  0  0  0  0  0
  1  2  1  0  0  0  0
  1 16  1  0  0  0  0
  1 17  1  0  0  0  0
  1 18  1  0  0  0  0
  2  3  1  0  0  0  0
  2  4  1  0  0  0  0
  2 15  1  0  0  0  0
  4  5  1  0  0  0  0
  4 19  1  0  0  0  0
  4 20  1  0  0  0  0
  5  6  2  0  0  0  0
  5 10  1  0  0  0  0
  6  7  1  0  0  0  0
  6 21  1  0  0  0  0
  7  8  2  0  0  0  0
  7 22  1  0  0  0  0
  8  9  1  0  0  0  0
  8 11  1  0  0  0  0
  9 10  2  0  0  0  0
  9 23  1  0  0  0  0
 10 24  1  0  0  0  0
 11 12  1  0  0  0  0
 12 13  1  0  0  0  0
 12 25  1  0  0  0  0
 12 26  1  0  0  0  0
 13 14  1  0  0  0  0
 13 27  1  0  0  0  0
 13 28  1  0  0  0  0
 14 29  1  0  0  0  0
 15 30  1  0  0  0  0
 15 31  1  0  0  0  0
 15 32  1  0  0  0  0
M  CHG  1  15   1
M  END
$$$$
