32
1 1 C11H18NO2
C                    -0.791052766780    -3.205124826505    -2.414728975022
C                     0.245058119143    -2.385261223453    -1.659794600786
H                     1.129819311506    -2.988594269782    -1.440521286830
C                     0.658925588859    -1.071218359491    -2.339025438900
C                     1.354638561384    -1.333642973999    -3.656614335226
C                     0.661761460115    -1.228500669343    -4.873793062351
C                     1.290482963191    -1.510496342060    -6.080640472289
C                     2.639868631118    -1.908372663857    -6.103585305096
C                     3.344947056002    -2.014311263796    -4.893143903464
C                     2.697810815715    -1.724063384693    -3.689385009857
O                     3.155773029573    -2.143269691537    -7.339133381902
C                     4.531352366167    -2.560413911210    -7.486679698929
C                     4.676082957714    -4.059680636601    -7.257042057710
O                     3.930950940418    -4.815606710097    -8.201879754531
N                    -0.336425422412    -2.038767289131    -0.270464472663
H                    -1.700692971698    -2.624622263080    -2.605045505632
H                    -0.372058146696    -3.489553973543    -3.381301869048
H                    -1.056580058402    -4.124005010574    -1.882090971854
H                    -0.232886265407    -0.453284673615    -2.502513711533
H                     1.325472266196    -0.512135794157    -1.668789539138
H                    -0.378600840811    -0.910168842368    -4.883700587970
H                     0.762318978710    -1.415286185638    -7.024438579312
H                     4.386920511030    -2.308857956305    -4.871107874306
H                     3.267802268704    -1.795598258545    -2.764315473881
H                     4.772410355397    -2.321261314487    -8.523847425826
H                     5.185503099094    -1.975118991963    -6.831788424829
H                     4.388910508389    -4.323867712852    -6.228751114476
H                     5.725170739955    -4.338200858611    -7.393067340176
H                     3.017325470176    -4.486630647574    -8.194158847356
H                    -0.588325310754    -2.882072527140     0.259797863503
H                    -1.187554852403    -1.470810919401    -0.367218567099
H                     0.331083680101    -1.497711081977     0.293170630673
