14   
torsion grid (-165,)
C       -1.2057354639   -1.5267183741   -0.7496167576
C        2.0974552945    0.6150550212    0.5570436177
C       -0.7587514144   -0.3722953749   -1.5359951135
C        0.0820061640    0.6087261905   -0.6987799306
N       -1.5695277216   -2.4246665622   -0.1069055322
O        0.2147681117    1.8571248197   -1.3521408442
O        1.3154076841   -0.0143448217   -0.4641441821
H        3.0189100024    0.0369683983    0.6397745419
H        1.5669988148    0.5921391876    1.5176841999
H        2.3325789967    1.6522911307    0.2951749481
H       -0.1654238956   -0.7226508090   -2.3872288234
H       -1.6360697805    0.1559540809   -1.9191484604
H       -0.4310140652    0.8436513082    0.2414559760
H        0.7616857493    1.7174029533   -2.1447237232
14   
torsion grid (-150,)
C       -1.3317855267   -1.4844251737   -0.7559816358
C        2.1416212335    0.6464965351    0.5254647710
C       -0.6984048511   -0.4293374720   -1.5531353754
C        0.0964541067    0.5643580835   -0.6782532269
N       -1.8446191053   -2.2975772331   -0.1019015410
O        0.1205170148    1.8603829391   -1.2475883736
O        1.3756684706    0.0160042028   -0.5078431337
H        3.1005932421    0.1274186671    0.5581328193
H        1.6386420400    0.5429729427    1.4955275192
H        2.3013385399    1.7082545995    0.3098904221
H       -0.0312190610   -0.8774311337   -2.2960356510
H       -1.4863391142    0.1196781110   -2.0762318195
H       -0.4048897156    0.7065590720    0.2861205649
H        0.6457112025    1.8152830080   -2.0657154233
14   
torsion grid (-135,)
C       -1.4685910850   -1.4294468114   -0.7891895827
C        2.1895255621    0.6920133886    0.4865381415
C       -0.6440766009   -0.4896918884   -1.5546559003
C        0.1091643468    0.5140255785   -0.6435889675
N       -2.1267766088   -2.1544014766   -0.1618927022
O        0.0298583114    1.8405459471   -1.1315108536
O        1.4283787275    0.0462714475   -0.5412618630
H        3.1788153474    0.2323331582    0.4719347860
H        1.7266235703    0.5295078172    1.4685277978
H        2.2766937970    1.7675382793    0.3005283696
H        0.0770286824   -1.0437962939   -2.1621652921
H       -1.3078835072    0.0673175612   -2.2218595683
H       -0.3658133484    0.5677658606    0.3423872969
H        0.5203412814    1.8786545805   -1.9713417459
14   
torsion grid (-120,)
C       -1.6012530197   -1.3563110176   -0.8492294016
C        2.2361498330    0.7440733740    0.4410864223
C       -0.5947831726   -0.5478933468   -1.5435129342
C        0.1197450035    0.4583157771   -0.5975337663
N       -2.3961660040   -1.9860336248   -0.2801327644
O       -0.0586160719    1.8012099388   -1.0044043443
O        1.4727941196    0.0761094319   -0.5704189791
H        3.2496453796    0.3456496978    0.3748974882
H        1.8252901523    0.5324498275    1.4369792448
H        2.2509254755    1.8268334396    0.2795636395
H        0.1495709228   -1.2113499173   -1.9914232379
H       -1.0977166493   -0.0010876456   -2.3461242821
H       -0.3145728291    0.4242804755    0.4075145026
H        0.3822753367    1.9123907382   -1.8648116713
14   
torsion grid (-105,)
C       -1.7147347354   -1.2630192694   -0.9293234081
C        2.2759467070    0.7956046656    0.3920162898
C       -0.5490571032   -0.6019773593   -1.5232921386
C        0.1305842912    0.3979952752   -0.5478447398
N       -2.6297841121   -1.7861231643   -0.4382379198
O       -0.1449770174    1.7448792049   -0.8727041454
O        1.5082437823    0.1070881680   -0.6017234161
H        3.3082790295    0.4653330186    0.2669150463
H        1.9283282804    0.5318138430    1.3997042771
H        2.2146302631    1.8811021738    0.2634136381
H        0.1776342429   -1.3686737063   -1.8039487603
H       -0.8653665883   -0.0846349866   -2.4336546671
H       -0.2524173261    0.2771648615    0.4712863908
H        0.2359787623    1.9220844236   -1.7501565306
14   
torsion grid (-90,)
C       -1.7986096169   -1.1564726221   -1.0160638814
C        2.3069992166    0.8466170583    0.3433184747
C       -0.5051287032   -0.6576929998   -1.4926225639
C        0.1456807406    0.3367438805   -0.5015755317
N       -2.8137526050   -1.5590445918   -0.6169846462
O       -0.2270883294    1.6748550393   -0.7507718637
O        1.5355618803    0.1385761395   -0.6331220931
H        3.3505144376    0.5868508007    0.1586813406
H        2.0275727789    0.5334706576    1.3582118974
H        2.1713805484    1.9291022174    0.2518262310
H        0.1653554965   -1.5124626307   -1.6165021893
H       -0.6327870831   -0.1894538548   -2.4733308105
H       -0.1813190364    0.1408353703    0.5257893586
H        0.0789087514    1.9067126841   -1.6444038064
14   
torsion grid (-75,)
C       -1.8521231937   -1.0461430946   -1.1051025992
C        2.3312068998    0.8920937534    0.2981963872
C       -0.4664986099   -0.7159204403   -1.4520832007
C        0.1642368575    0.2823003452   -0.4611656709
N       -2.9438716567   -1.3192810970   -0.8134992886
O       -0.3053803937    1.5997683579   -0.6422988122
O        1.5542336596    0.1740942548   -0.6663492792
H        3.3775814089    0.7060914246    0.0511573898
H        2.1255353858    0.5244694924    1.3124869935
H        2.1247058467    1.9664110559    0.2569349923
H        0.1224140037   -1.6374720901   -1.4408558408
H       -0.4246857371   -0.3113202680   -2.4686235078
H       -0.1019985451    0.0290384704    0.5717811732
H       -0.0820674493    1.8745069837   -1.5481288203
14   
torsion grid (-60,)
C       -1.8816376942   -0.9388619863   -1.1990576378
C        2.3507157824    0.9328730263    0.2529973014
C       -0.4383968989   -0.7763632824   -1.3994922625
C        0.1828797781    0.2372528454   -0.4222825826
N       -3.0236827679   -1.0810978829   -1.0353100407
O       -0.3734255533    1.5267934932   -0.5407762262
O        1.5628207248    0.2096620359   -0.6988410694
H        3.3900433120    0.8243256460   -0.0608703553
H        2.2280537975    0.5100228959    1.2591742556
H        2.0770154317    1.9926589025    0.2720629685
H        0.0523631844   -1.7447991064   -1.2682771907
H       -0.2466365677   -0.4507398027   -2.4280453959
H       -0.0171465799   -0.0545983903    0.6160059000
H       -0.2396774727    1.8315087541   -1.4548377481
14   
torsion grid (-45,)
C       -1.8889493700   -0.8455186721   -1.3045191975
C        2.3665247244    0.9690006604    0.2030847210
C       -0.4234919981   -0.8314801937   -1.3419301245
C        0.1970275089    0.2009932341   -0.3809172200
N       -3.0511658015   -0.8643228477   -1.2900300373
O       -0.4358577957    1.4590767970   -0.4235303069
O        1.5574206590    0.2508305133   -0.7348157768
H        3.3897252383    0.9216812750   -0.1727891675
H        2.3206740835    0.4994042322    1.1948352450
H        2.0477813410    2.0131635400    0.2833822755
H       -0.0403439154   -1.8272296302   -1.1021888856
H       -0.0985055446   -0.5974137541   -2.3621266467
H        0.0741879411   -0.1245691809    0.6595738048
H       -0.3917385945    1.7950211750   -1.3355787673
14   
torsion grid (-30,)
C       -1.8747302345   -0.7542095725   -1.4221787811
C        2.3761822514    1.0071799313    0.1463361800
C       -0.4211792506   -0.8833012687   -1.2823381407
C        0.2090509357    0.1643391969   -0.3344143701
N       -3.0244256277   -0.6536024917   -1.5623988936
O       -0.4784269964    1.3920000532   -0.2935326353
O        1.5435246307    0.2819087747   -0.7651947795
H        3.3767776431    1.0140981532   -0.2887233306
H        2.4077749267    0.5085706674    1.1244875722
H        2.0202373315    2.0341114058    0.2763863646
H       -0.1710889814   -1.8906168598   -0.9387590062
H        0.0295367904   -0.7604408170   -2.2733962394
H        0.1681411012   -0.1910576052    0.7026351065
H       -0.5380860439    1.7496575808   -1.1964591308
14   
torsion grid (-15,)
C       -1.8306586701   -0.6574853746   -1.5480466553
C        2.3748728645    1.0517128223    0.0832420737
C       -0.4269228697   -0.9320648118   -1.2286543367
C        0.2225222952    0.1174586611   -0.2834135632
N       -2.9345694565   -0.4281814281   -1.8321956144
O       -0.5027388072    1.3149804238   -0.1499329957
O        1.5233789787    0.3037476595   -0.7912554256
H        3.3486285551    1.1049508657   -0.4061793776
H        2.4809030959    0.5431761183    1.0512079852
H        1.9855481243    2.0613422859    0.2477406269
H       -0.3439470808   -1.9307616694   -0.7918510580
H        0.1384531442   -0.9408698244   -2.1658333592
H        0.2671830598   -0.2734248566    0.7403106016
H       -0.6793647570    1.6840562766   -1.0326889856
14   
torsion grid (0,)
C       -1.7519021398   -0.5561464091   -1.6720126037
C        2.3584776243    1.1012864771    0.0162020538
C       -0.4376048711   -0.9783273897   -1.1812959061
C        0.2382072308    0.0604437557   -0.2340912140
N       -2.7788233205   -0.1905777760   -2.0772079173
O       -0.5144806035    1.2249425253   -0.0045712761
O        1.4958108422    0.3211978408   -0.8175465558
H        3.3022135451    1.1983873074   -0.5228009564
H        2.5366145760    0.5936548170    0.9743035252
H        1.9356388446    2.0922596847    0.2083067440
H       -0.5505243594   -1.9361845700   -0.6660935284
H        0.2189702070   -1.1414600543   -2.0398303466
H        0.3696020085   -0.3710389714    0.7653234525
H       -0.7989111078    1.6001999108   -0.8562355550
14   
torsion grid (15,)
C       -1.6425324135   -0.4634914677   -1.7871988013
C        2.3280131937    1.1486013616   -0.0504006644
C       -0.4538306166   -1.0178642775   -1.1346040491
C        0.2511850981    0.0021121056   -0.1896968402
N       -2.5697438777    0.0193351838   -2.2970278621
O       -0.5243082479    1.1273935759    0.1344708068
O        1.4553614155    0.3402375719   -0.8451170375
H        3.2307440001    1.3018041475   -0.6438810767
H        2.5898448515    0.6347203934    0.8851025563
H        1.8704483559    2.1138999633    0.1872926425
H       -0.7658788273   -1.8969527017   -0.5632757485
H        0.2581988891   -1.3453775412   -1.8951001916
H        0.4670729342   -0.4702275149    0.7760467405
H       -0.8712862788    1.5244463484   -0.6841605585
14   
torsion grid (30,)
C       -1.5137431506   -0.3909055351   -1.8868813470
C        2.2906509461    1.1882444812   -0.1129670152
C       -0.4752016161   -1.0473257112   -1.0880101437
C        0.2615513112   -0.0479323508   -0.1558889663
N       -2.3284965179    0.1808422389   -2.4886254794
O       -0.5352827631    1.0296120910    0.2646198212
O        1.4021748925    0.3671974251   -0.8760278196
H        3.1445471533    1.3999269113   -0.7584130586
H        2.6358663161    0.6575694492    0.7854852949
H        1.8101442658    2.1245917390    0.1872680552
H       -0.9617850859   -1.8183070237   -0.4830143249
H        0.2510395141   -1.5311583165   -1.7442355131
H        0.5586096143   -0.5566765561    0.7694579770
H       -0.9167864034    1.4629583061   -0.5203175643
14   
torsion grid (45,)
C       -1.3783382044   -0.3455699572   -1.9758501134
C        2.2537804345    1.2195218971   -0.1692528260
C       -0.5050181950   -1.0636650963   -1.0415728545
C        0.2683009212   -0.0842757538   -0.1307819312
N       -2.0729226045    0.2756229954   -2.6717457043
O       -0.5429325686    0.9401394697    0.3897739428
O        1.3389740814    0.4025794424   -0.9050443296
H        3.0500513705    1.4914434960   -0.8637902543
H        2.6814928800    0.6614846093    0.6754282890
H        1.7660772814    2.1233158697    0.2092275536
H       -1.1323853532   -1.7115308138   -0.4223736734
H        0.2029848282   -1.6853375619   -1.5942655583
H        0.6408645797   -0.6242516279    0.7492266346
H       -0.9476409749    1.4191601797   -0.3565292586
14   
torsion grid (60,)
C       -1.2535250173   -0.3358460338   -2.0633809721
C        2.2246103156    1.2429706976   -0.2142047947
C       -0.5432004105   -1.0602539441   -1.0024416518
C        0.2695847204   -0.0994976729   -0.1150534750
N       -1.8322818804    0.2771469616   -2.8643270500
O       -0.5416174837    0.8645917032    0.5175238436
O        1.2658517979    0.4597481799   -0.9307546194
H        2.9545688304    1.5833162772   -0.9500560304
H        2.7313004930    0.6356738129    0.5486627397
H        1.7536917878    2.1053096857    0.2682370473
H       -1.2762594159   -1.5840674518   -0.3830542312
H        0.1270977278   -1.7972081941   -1.4528679363
H        0.7152254652   -0.6702914466    0.7106197880
H       -0.9717584542    1.3970445736   -0.1764527414
14   
torsion grid (75,)
C       -1.1418449410   -0.3563183195   -2.1522793768
C        2.2005007345    1.2642320473   -0.2499423601
C       -0.5891221108   -1.0385281983   -0.9749834860
C        0.2664449812   -0.1005279322   -0.1035345692
N       -1.6032189451    0.2001794154   -3.0629125698
O       -0.5210511560    0.7984459775    0.6511040905
O        1.1878615851    0.5315383198   -0.9463912966
H        2.8571339636    1.6817036103   -1.0144274173
H        2.7793479681    0.5996365422    0.4060498466
H        1.7664238098    2.0716305298    0.3483202107
H       -1.4051742426   -1.4414132989   -0.3703483183
H        0.0299849111   -1.8720440623   -1.3206821919
H        0.7798763724   -0.7058472795    0.6559678697
H       -0.9838744542    1.3859497969    0.0265094847
14   
torsion grid (90,)
C       -1.0367321703   -0.3939202460   -2.2351466550
C        2.1773002835    1.2901042267   -0.2800593835
C       -0.6387116576   -1.0053361884   -0.9604965477
C        0.2650643619   -0.0990373340   -0.0951744765
N       -1.3802957245    0.0819668494   -3.2386846817
O       -0.4789427611    0.7260185697    0.7820921972
O        1.1119884923    0.6103525395   -0.9514907460
H        2.7696601805    1.7739591028   -1.0577811862
H        2.8074294611    0.5773787838    0.2692997310
H        1.7924603799    2.0420096770    0.4162925878
H       -1.5273986119   -1.2765028751   -0.3857672242
H       -0.0970819822   -1.9272065750   -1.1953503227
H        0.8429278234   -0.7390121491    0.5849442461
H       -0.9843795986    1.3578627671    0.2397723777
14   
torsion grid (105,)
C       -0.9314978903   -0.4471091638   -2.3054363627
C        2.1517072144    1.3213700764   -0.3047707775
C       -0.6914635498   -0.9654045413   -0.9530908933
C        0.2702903058   -0.1042604384   -0.0904301822
N       -1.1566951480   -0.0636791962   -3.3795309988
O       -0.4196079225    0.6434307412    0.8961751512
O        1.0431790776    0.6832957074   -0.9467013233
H        2.6788888682    1.8736804549   -1.0837490923
H        2.8268333421    0.5749603555    0.1352530245
H        1.8161037807    2.0096847425    0.4775836498
H       -1.6429168104   -1.0752700554   -0.4272907555
H       -0.2674831207   -1.9684271686   -1.0651218607
H        0.9054759460   -0.7756031524    0.5015652845
H       -0.9595256168    1.3119687864    0.4379950525
14   
torsion grid (120,)
C       -0.8264689371   -0.5151892898   -2.3587872017
C        2.1211559753    1.3581710519   -0.3233534490
C       -0.7410847471   -0.9210541285   -0.9513429205
C        0.2815969959   -0.1195586382   -0.0912869103
N       -0.9374796977   -0.2270675126   -3.4795066185
O       -0.3485803599    0.5425461576    0.9914806731
O        0.9773244449    0.7526352337   -0.9335635384
H        2.5832056888    1.9801128424   -1.0911529122
H        2.8360850318    0.5916153646    0.0048724676
H        1.8357081462    1.9756982286    0.5345320224
H       -1.7325161873   -0.8370635899   -0.4981815471
H       -0.4781136411   -1.9829204240   -0.9291572913
H        0.9705708446   -0.8177584994    0.3995494398
H       -0.9181150812    1.2384703520    0.6183477023
14   
torsion grid (135,)
C       -0.7312246783   -0.5998000720   -2.3931271215
C        2.0878146950    1.3954627025   -0.3349174623
C       -0.7861901661   -0.8693882389   -0.9522812645
C        0.2934475713   -0.1386122219   -0.1001381962
N       -0.7316384735   -0.4199217200   -3.5415782088
O       -0.2737325872    0.4296136544    1.0663912375
O        0.9118295666    0.8197994369   -0.9113017566
H        2.4805291487    2.0933659961   -1.0755469571
H        2.8380612411    0.6195910146   -0.1313747678
H        1.8584647535    1.9279194147    0.5940900943
H       -1.7780246747   -0.5784635554   -0.5925264847
H       -0.7074101144   -1.9488015876   -0.7959399988
H        1.0267249525   -0.8598222388    0.2799781534
H       -0.8653627581    1.1476945637    0.7807226493
14   
torsion grid (150,)
C       -0.6511402978   -0.6959311389   -2.4077700166
C        2.0549005694    1.4296742960   -0.3412046605
C       -0.8269561842   -0.8097218447   -0.9559603820
C        0.2997663156   -0.1527392959   -0.1167107911
N       -0.5469874307   -0.6332871156   -3.5638218427
O       -0.2035578813    0.3101106735    1.1222229406
O        0.8462887365    0.8868156326   -0.8805871301
H        2.3831025853    2.2000397560   -1.0402583571
H        2.8276803166    0.6529947171   -0.2668496238
H        1.8892177720    1.8703210928    0.6477034564
H       -1.7785362491   -0.3298928145   -0.7023588785
H       -0.9239520137   -1.8630191884   -0.6802841641
H        1.0657013790   -0.8910211012    0.1489624201
H       -0.8122391413    1.0442934797    0.9293669457
14   
torsion grid (165,)
C       -0.5888306410   -0.7985718750   -2.4061832738
C        2.0270402163    1.4611286608   -0.3426796887
C       -0.8643423060   -0.7420684465   -0.9663974286
C        0.2973159837   -0.1535287975   -0.1378424916
N       -0.3862479250   -0.8659715958   -3.5488744284
O       -0.1427106862    0.1909754220    1.1616099158
O        0.7831114618    0.9589187359   -0.8396440493
H        2.2988181963    2.2989930554   -0.9861647126
H        2.8063865027    0.6900393299   -0.4024701833
H        1.9343473542    1.8031921371    0.6938102671
H       -1.7509342947   -0.1140545894   -0.8217940910
H       -1.1083082229   -1.7403914625   -0.5945195928
H        1.0847526345   -0.9010695556    0.0155908700
H       -0.7671097973    0.9310461296    1.0680088033
14   
torsion grid (180,)
C       -1.0948087586   -1.5657670874   -0.7765553223
C        2.0622586420    0.5999763179    0.5853246456
C       -0.8206194857   -0.3222871980   -1.5046417079
C        0.0690289911    0.6461782364   -0.7049984543
N       -1.3277606749   -2.5420753920   -0.1900670930
O        0.3095949652    1.8308003255   -1.4403551655
O        1.2523429513   -0.0423885378   -0.4046658883
H        2.9385092159   -0.0345580921    0.7250965705
H        1.5179845637    0.6812308060    1.5351450351
H        2.3747869360    1.5975858133    0.2581773059
H       -0.3163448785   -0.5743072124   -2.4443266884
H       -1.7624146133    0.1758295566   -1.7489609374
H       -0.4430302192    0.9771676007    0.2065176729
H        0.8637608413    1.5912520116   -2.2032400566
