10   
torsion grid (-165,)
C        0.0523433423    1.9302423999    0.7928663858
C       -0.2237686408   -1.7229445779   -0.2225081549
N       -0.1834724789    0.6778848426    0.8062068518
O        0.7172993093    0.3242829674   -1.7226831265
S        0.8375883439   -0.2457180579   -0.3327608154
H       -0.4905681042    2.5581757696    1.5035940719
H        0.7311184821    2.4305017476    0.0904937198
H        0.2193955171   -2.4871615468   -0.8643475571
H       -1.2261195114   -1.4627585084   -0.5701816301
H       -0.2464811926   -2.0540592422    0.8173927387
10   
torsion grid (-150,)
C        0.0330257162    1.9028779075    0.7646860786
C       -0.2415846744   -1.7000509082   -0.2274454711
N       -0.0432072197    0.6384324090    0.9134317801
O        0.8198266860    0.3651849134   -1.6326085525
S        0.9007562315   -0.2777928751   -0.2715374251
H       -0.4612568444    2.5345131656    1.5059791625
H        0.5262342765    2.3916119699   -0.0845211349
H        0.1628184543   -2.4558545359   -0.9037272886
H       -1.2291926676   -1.3752350195   -0.5628446946
H       -0.2800848915   -2.0752412328    0.7966600296
10   
torsion grid (-135,)
C        0.0068083735    1.8546293021    0.7383026274
C       -0.2516418468   -1.6586360226   -0.2267672673
N        0.1076347276    0.6111691334    1.0050289661
O        0.8986605557    0.3889572419   -1.5651342517
S        0.9780532431   -0.3070583701   -0.2297498781
H       -0.4642591409    2.4985613834    1.4835714048
H        0.3384976801    2.2996558511   -0.2079735981
H        0.1017397076   -2.4109895619   -0.9346557847
H       -1.2155535752   -1.2560280296   -0.5460741429
H       -0.3126046579   -2.0718151338    0.7815244084
10   
torsion grid (-120,)
C       -0.0263767169    1.7891068375    0.7180693869
C       -0.2581543287   -1.6018122983   -0.2219791387
N        0.2671492640    0.5992614197    1.0713665877
O        0.9728328702    0.3912603648   -1.5258849862
S        1.0624790348   -0.3350444086   -0.2066581964
H       -0.4888713476    2.4416857076    1.4609548589
H        0.1585316033    2.1786868706   -0.2911630455
H        0.0399128409   -2.3597292579   -0.9491456235
H       -1.1872323367   -1.1186572246   -0.5323318411
H       -0.3529358165   -2.0363122168    0.7748444818
10   
torsion grid (-105,)
C       -0.0622386025    1.7118058596    0.7065091433
C       -0.2632279232   -1.5349498315   -0.2158052612
N        0.4282730368    0.6070986713    1.1116268469
O        1.0524180979    0.3759869512   -1.5118419098
S        1.1460965493   -0.3623613112   -0.1987567328
H       -0.5194467682    2.3677465642    1.4497802155
H       -0.0255114262    2.0364457788   -0.3419485941
H       -0.0191247553   -2.3100870452   -0.9450565068
H       -1.1463448697   -0.9763072423   -0.5333940730
H       -0.4035582720   -1.9669326008    0.7769593559
10   
torsion grid (-90,)
C       -0.0973201893    1.6295511614    0.7067004605
C       -0.2680475958   -1.4636215311   -0.2125821991
N        0.5825937171    0.6383947362    1.1287780870
O        1.1403346710    0.3484018346   -1.5147970683
S        1.2211154464   -0.3889319422   -0.1994621354
H       -0.5411430198    2.2969841303    1.4483860844
H       -0.2191083895    1.8677897291   -0.3590793988
H       -0.0723262006   -2.2644922038   -0.9287655278
H       -1.1002060653   -0.8436113056   -0.5532328563
H       -0.4585573073   -1.8720188150    0.7821270377
10   
torsion grid (-75,)
C       -0.1307358820    1.5568403562    0.7182717342
C       -0.2744419063   -1.3956214919   -0.2178708518
N        0.7184126174    0.6970905422    1.1186123287
O        1.2524005257    0.3027235215   -1.5220664263
S        1.2801078955   -0.4147908670   -0.1941218951
H       -0.5395245629    2.2526019019    1.4549443438
H       -0.4318450598    1.6796752188   -0.3315686872
H       -0.1144133176   -2.2176044281   -0.9191318335
H       -1.0617868720   -0.7343959909   -0.5866448386
H       -0.5108383710   -1.7780729688    0.7776486097
10   
torsion grid (-60,)
C       -0.1580484462    1.5111644259    0.7483327236
C       -0.2841461233   -1.3422836840   -0.2385804096
N        0.8321053895    0.7816588004    1.0737258514
O        1.3806131640    0.2395995938   -1.5313448833
S        1.3165462324   -0.4370181997   -0.1843092698
H       -0.5002644778    2.2572407907    1.4707143709
H       -0.6616320276    1.4902647410   -0.2275264742
H       -0.1283998616   -2.1935741404   -0.9052775583
H       -1.0353990769   -0.6744690704   -0.6655353453
H       -0.5740397056   -1.6841374633    0.7578734785
10   
torsion grid (-45,)
C       -0.1775150985    1.4959327296    0.7894378296
C       -0.2960735021   -1.3071704807   -0.2699059377
N        0.9176650424    0.8816421999    0.9899463702
O        1.5026500023    0.1608127580   -1.5408679752
S        1.3310417868   -0.4497198864   -0.1739480013
H       -0.4299440917    2.3155298661    1.4688107309
H       -0.8812383256    1.3032542842   -0.0300137691
H       -0.1158516814   -2.2038178819   -0.8676556250
H       -1.0094211014   -0.6672669087   -0.7933713683
H       -0.6539779639   -1.5807508861    0.7256402300
10   
torsion grid (-30,)
C       -0.1957746093    1.4857469616    0.8340323837
C       -0.3063149133   -1.2769042226   -0.3083826992
N        0.9653890625    0.9704954419    0.8850017592
O        1.6153902495    0.0845387158   -1.5394979749
S        1.3353115751   -0.4526029994   -0.1615320821
H       -0.3818513859    2.3732628511    1.4465107134
H       -1.0342656947    1.1293538104    0.2237456060
H       -0.1053481293   -2.2025515748   -0.8531774243
H       -0.9811513124   -0.6582910264   -0.9041360260
H       -0.7240497754   -1.5046021636    0.6755082281
10   
torsion grid (-15,)
C       -0.2160300270    1.4770142689    0.8648766532
C       -0.3125854245   -1.2482943596   -0.3357668610
N        0.9768316266    1.0483587327    0.7629575148
O        1.7158286845   -0.0109478972   -1.5298008404
S        1.3365243546   -0.4500394300   -0.1421817807
H       -0.3704197730    2.4196039302    1.3985216040
H       -1.1135103830    0.9871992841    0.4690598534
H       -0.1019089057   -2.1877150407   -0.8523367051
H       -0.9538943726   -0.6325981378   -0.9710520792
H       -0.7735007129   -1.4541355566    0.6337951250
10   
torsion grid (0,)
C       -0.1510676322    1.5216205942    0.8194022007
C        0.1628295745   -1.3194946604    0.0083037626
N        0.3529017045    1.4987362823   -0.3481073957
O       -0.3043471711   -0.1033075590   -2.3083011054
S        0.6972369236   -0.0279069923   -1.1906583035
H       -0.3480068474    2.5008584963    1.2655776324
H       -0.4089645443    0.6469846689    1.4281125338
H        0.3201174330   -2.2633211170   -0.5187865318
H       -0.9023021949   -1.2042349274    0.2248272935
H        0.7689378211   -1.3014889916    0.9177023974
10   
torsion grid (15,)
C       -0.1346747670    1.5230812641    0.8445179883
C        0.1312298848   -1.3124333191   -0.0006519034
N        0.2081707166    1.4870063872   -0.3800860630
O       -0.1973470322   -0.1530474061   -2.3682689192
S        0.7037120651   -0.0147954349   -1.1756963504
H       -0.4087610677    2.4953207740    1.2640238466
H       -0.1860239435    0.6654523065    1.5260633313
H        0.2941016262   -2.2553089396   -0.5271224525
H       -0.9368317369   -1.1813798001    0.1912870138
H        0.7137593214   -1.3054500380    0.9240059925
10   
torsion grid (30,)
C       -0.1122715182    1.5314774043    0.8674998245
C        0.0964811914   -1.3145745743   -0.0137857978
N        0.0609139510    1.4579929784   -0.3908312219
O       -0.0996099345   -0.1856656957   -2.4104800603
S        0.7031317204   -0.0037847274   -1.1576055382
H       -0.4698316466    2.4815571142    1.2743793181
H        0.0597833637    0.7255115707    1.5918997866
H        0.2958787573   -2.2568584549   -0.5283092872
H       -0.9797434021   -1.1881568080    0.1272584317
H        0.6326025844   -1.2990530133    0.9380470286
10   
torsion grid (45,)
C       -0.0732312382    1.5446225015    0.8898896046
C        0.0514028595   -1.3257138262   -0.0312903885
N       -0.0814335103    1.4102968257   -0.3752580661
O       -0.0241894416   -0.1949472972   -2.4378508683
S        0.6904742631    0.0018002074   -1.1373115032
H       -0.5181984309    2.4524377848    1.3065506830
H        0.3461040104    0.8328513072    1.6135352249
H        0.3407068888   -2.2677926829   -0.5017560376
H       -1.0372275192   -1.2425868393    0.0058280403
H        0.4929271853   -1.2625221870    0.9657357949
10   
torsion grid (60,)
C       -0.0435552988    1.5613442783    0.9008856405
C        0.0093130995   -1.3413237852   -0.0442569222
N       -0.2252601779    1.3464431444   -0.3398932848
O        0.0710755150   -0.1909048718   -2.4495141782
S        0.6841551167    0.0076474455   -1.1002829867
H       -0.5742489951    2.4015379888    1.3565121223
H        0.6138222781    0.9817445943    1.5650464304
H        0.3662909288   -2.2767832206   -0.4806329669
H       -1.0808631152   -1.2934259282   -0.0934878369
H        0.3666057158   -1.2478338516    0.9836964664
10   
torsion grid (75,)
C       -0.0161372938    1.5971506444    0.9056211906
C       -0.0319993162   -1.3757137136   -0.0595355652
N       -0.3477754883    1.2649439360   -0.2773927621
O        0.1669848044   -0.1664978496   -2.4349382135
S        0.6795132667    0.0064691534   -1.0417396324
H       -0.6049592200    2.3691672358    1.4075618632
H        0.8321179324    1.1810983229    1.4700504753
H        0.3665679034   -2.2976664790   -0.4889783282
H       -1.1181286322   -1.3440352761   -0.1717545390
H        0.2611511104   -1.2864701803    0.9891779953
10   
torsion grid (90,)
C        0.0087573703    1.6578874767    0.9047988147
C       -0.0673015202   -1.4324658743   -0.0790015129
N       -0.4327951926    1.1753188858   -0.1877829154
O        0.2470906904   -0.1229116570   -2.3915198434
S        0.6771722846   -0.0069772624   -0.9644049769
H       -0.6129206353    2.3812055846    1.4386538702
H        0.9812084068    1.4111674734    1.3569910099
H        0.3537994017   -2.3344691428   -0.5289219618
H       -1.1479022850   -1.3979132637   -0.2348665213
H        0.1802265463   -1.3823964264    0.9841265209
10   
torsion grid (105,)
C        0.0292139591    1.7302868399    0.9031919971
C       -0.0942436087   -1.5025762676   -0.1040994138
N       -0.4832307901    1.0874148678   -0.0703850309
O        0.3015066506   -0.0630504696   -2.3225220219
S        0.6751253012   -0.0283284763   -0.8739911549
H       -0.6059823939    2.4323633306    1.4495383381
H        1.0735987960    1.6399259412    1.2357440293
H        0.3548957327   -2.3766738597   -0.5812762993
H       -1.1664071193   -1.4641254367   -0.3088014484
H        0.1028585394   -1.5067906759    0.9706734885
10   
torsion grid (120,)
C        0.0489876267    1.7997285313    0.8970074820
C       -0.1167197244   -1.5724069841   -0.1316916854
N       -0.5050339650    1.0048697959    0.0689167378
O        0.3334116137    0.0093018917   -2.2363279251
S        0.6748784240   -0.0564172726   -0.7790595014
H       -0.5878880198    2.4975463254    1.4471021717
H        1.1287093803    1.8421854845    1.0990307484
H        0.3678926639   -2.4190161993   -0.6234535898
H       -1.1755889389   -1.5292345744   -0.3948181919
H        0.0186860064   -1.6281112043    0.9513662376
10   
torsion grid (135,)
C        0.0621701345    1.8585553902    0.8852934372
C       -0.1352303241   -1.6337169551   -0.1581909348
N       -0.4998749316    0.9268953702    0.2215356357
O        0.3654723285    0.0817673382   -2.1369474955
S        0.6840817853   -0.0890396406   -0.6808972244
H       -0.5749942261    2.5564302966    1.4353629816
H        1.1477895515    2.0199083872    0.9441896103
H        0.3660571121   -2.4546147119   -0.6759225162
H       -1.1818866747   -1.5661509837   -0.4611743225
H       -0.0462496884   -1.7515886973    0.9248233126
10   
torsion grid (150,)
C        0.0712880739    1.9015606206    0.8672697792
C       -0.1541597070   -1.6821554044   -0.1809360865
N       -0.4670014118    0.8538236624    0.3812502631
O        0.4075303243    0.1558600792   -2.0295304043
S        0.7039419078   -0.1253812677   -0.5837316186
H       -0.5635418304    2.5962426549    1.4241248482
H        1.1321597165    2.1692862503    0.7630694613
H        0.3569222806   -2.4838051534   -0.7186925220
H       -1.1862638888   -1.5816710461   -0.5221824398
H       -0.1135403981   -1.8553146018    0.8974312034
10   
torsion grid (165,)
C        0.0701685098    1.9289284131    0.8440459628
C       -0.1750237557   -1.7134330583   -0.1989411817
N       -0.4040337730    0.7874322101    0.5359829255
O        0.4873965386    0.2158096510   -1.9226124847
S        0.7404977238   -0.1661471778   -0.4896313762
H       -0.5584130558    2.6045663466    1.4307214285
H        1.0636835498    2.2988237443    0.5549310005
H        0.3160678559   -2.4963938918   -0.7808229425
H       -1.1996775430   -1.5587221949   -0.5426094548
H       -0.1533309835   -1.9524182483    0.8670086064
10   
torsion grid (180,)
C        0.0649653544    1.9363390633    0.8208167809
C       -0.1990879102   -1.7262437217   -0.2127714310
N       -0.3059555703    0.7257299726    0.6820224925
O        0.5912581597    0.2746389077   -1.8240538334
S        0.7862775839   -0.2075187496   -0.4105503214
H       -0.5324461984    2.5843065289    1.4678549520
H        0.9271227157    2.3932141272    0.3169445720
H        0.2712660240   -2.5019228494   -0.8208087238
H       -1.2127123008   -1.5207265813   -0.5634097649
H       -0.2033527910   -2.0093709038    0.8420277610
