16   
torsion grid (-165,)
C        1.0124073802   -0.5657729771    0.0224829011
C        0.2253763963   -3.2875344294   -1.3551767812
C        3.0860286931   -1.3241471297   -1.2326780359
C        1.6491027712   -0.8021964950   -1.3476136243
O        3.7361466023   -1.4610747743   -2.4872754416
S        0.6373383591   -1.8865491947   -2.4546736352
H       -0.0162096292   -0.2084292939   -0.0776892105
H        1.0026313747   -1.4766772615    0.6289296778
H        1.5848901854    0.1893372782    0.5735104296
H       -0.2636124803   -4.0339936424   -1.9855303298
H       -0.4669637820   -2.9872205480   -0.5660825014
H        1.1187203171   -3.7379006398   -0.9149813351
H        3.0875251451   -2.2766056959   -0.6786146917
H        3.6825522964   -0.6086067848   -0.6568545595
H        1.6609732852    0.1439511356   -1.8991942041
H        3.1375970186   -1.9837900113   -3.0520697660
16   
torsion grid (-150,)
C        1.0408510100   -0.6712668272    0.0167782315
C        0.1032931625   -3.2586000954   -1.3193713449
C        3.1546009645   -1.2399051928   -1.2620957962
C        1.6790885658   -0.8390421170   -1.3630935122
O        3.8016274099   -1.3389679387   -2.5223111003
S        0.7604767290   -2.0061009827   -2.4763351224
H       -0.0114401187   -0.3845278928   -0.0645177531
H        1.1044663148   -1.5859208194    0.6136052022
H        1.5640765399    0.1183839457    0.5682016775
H       -0.3810295280   -4.0132469475   -1.9439230969
H       -0.6418194686   -2.8310997251   -0.6459958628
H        0.8940956946   -3.7439482896   -0.7415227142
H        3.2348354344   -2.1837781280   -0.6992155962
H        3.6998749714   -0.4717328725   -0.7033570359
H        1.5874217971    0.1160203756   -1.8899729868
H        3.2840844546   -1.9734769567   -3.0503842966
16   
torsion grid (-135,)
C        1.1857912311   -0.0379059707   -0.9374037348
C        0.2324665916   -1.3819277746   -3.4591598126
C        2.9998815781   -1.8196562716   -0.8066791144
C        2.3946154636   -0.6715215941   -1.6267503770
O        2.1252564709   -2.9378171950   -0.6923463925
S        2.0558091034   -1.2797418101   -3.3569379804
H        0.7587185549    0.7739374509   -1.5323554941
H        0.4083032130   -0.7765198174   -0.7306555102
H        1.5044096569    0.3842832227    0.0224966752
H        0.0228353161   -1.7779138730   -4.4561428753
H       -0.2358278607   -0.4001636869   -3.3698447839
H       -0.1871230613   -2.0627085874   -2.7156909765
H        3.1886769940   -1.4776326812    0.2165141241
H        3.9614949432   -2.1201616357   -1.2459010544
H        3.1552766918    0.1048713733   -1.7630452906
H        2.0029038218   -3.2747375563   -1.5976613618
16   
torsion grid (-120,)
C        1.1425471177   -0.1540593181   -0.9077766333
C        0.2080832030   -1.2692128492   -3.5469021958
C        3.0780164887   -1.7950794617   -0.7920217678
C        2.3646756615   -0.7204974510   -1.6282838546
O        2.2599288666   -2.9293896276   -0.5338370493
S        2.0082133826   -1.4704086136   -3.3026142267
H        0.6270736963    0.6036740483   -1.5031203344
H        0.4352509728   -0.9428922001   -0.6417991676
H        1.4709821755    0.3222691099    0.0230593404
H       -0.0084097695   -1.7665134987   -4.4959094176
H       -0.0784484592   -0.2191331317   -3.6324904532
H       -0.3729919666   -1.7522391859   -2.7595348386
H        3.3367887104   -1.3770934515    0.1865495619
H        4.0135172082   -2.0900897567   -1.2894779499
H        3.0758632116    0.0898029535   -1.8203081107
H        2.0123982087   -3.2844539730   -1.4070968619
16   
torsion grid (-105,)
C        1.0958062295   -0.2618309192   -0.8719181063
C        0.2075710568   -1.1679776572   -3.6255880586
C        3.1389830699   -1.7666280980   -0.7965435199
C        2.3158665881   -0.7732399445   -1.6343002802
O        2.3922003025   -2.9031482472   -0.3811711145
S        1.9245242189   -1.6503371230   -3.2331374027
H        0.5151443894    0.4565438735   -1.4557317756
H        0.4447725958   -1.0850999662   -0.5676426729
H        1.4342213092    0.2467508114    0.0381503622
H       -0.0446678100   -1.7124853117   -4.5391437810
H        0.1209977638   -0.0972353225   -3.8247810320
H       -0.4911325341   -1.4601533833   -2.8400757845
H        3.4712121750   -1.2688500128    0.1202900531
H        4.0366959830   -2.0683115504   -1.3568401481
H        2.9743446730    0.0640553372   -1.8896646171
H        2.0369486976   -3.3073688931   -1.1934660810
16   
torsion grid (-90,)
C        1.0555111964   -0.3441013659   -0.8307575095
C        0.2242865769   -1.0932007195   -3.6928696250
C        3.1787752838   -1.7382677653   -0.8115120671
C        2.2550465170   -0.8310208709   -1.6412720371
O        2.5111737053   -2.8623761964   -0.2495644620
S        1.8068292190   -1.8209067940   -3.1496236032
H        0.4326250702    0.3516893606   -1.3982670273
H        0.4388384208   -1.1817630812   -0.4951153184
H        1.4147619292    0.1840696221    0.0601230012
H       -0.0505880983   -1.6260754879   -4.6066007874
H        0.3320751614   -0.0313195377   -3.9288105052
H       -0.5660178265   -1.2335460466   -2.9532871948
H        3.5690863721   -1.1650831781    0.0353108633
H        4.0363897421   -2.0545075500   -1.4242263691
H        2.8530070905    0.0231014506   -1.9788644462
H        2.0816883484   -3.3320082469   -0.9862268712
16   
torsion grid (-75,)
C        1.0202800132   -0.4081103004   -0.7703265294
C        0.2549590548   -1.0295376522   -3.7584457201
C        3.1990145583   -1.7162625226   -0.8390096238
C        2.1803758866   -0.8905216853   -1.6407046470
O        2.6222736411   -2.8254110842   -0.1549871686
S        1.6559311078   -1.9635919673   -3.0574060327
H        0.3337708251    0.2350046558   -1.3268178401
H        0.4602488381   -1.2521089239   -0.3601059180
H        1.4131917417    0.1767770074    0.0697371616
H       -0.0193491999   -1.5375234326   -4.6861570395
H        0.5492113990   -0.0035711469   -3.9965135947
H       -0.6092113493   -1.0243607226   -3.0911026261
H        3.6322997568   -1.0806548227   -0.0607472276
H        4.0158358128   -2.0421668768   -1.4996693252
H        2.7121738434   -0.0300340344   -2.0643115346
H        2.1524827788   -3.3632428985   -0.8149962933
16   
torsion grid (-60,)
C        1.3737088179   -0.9710330811    0.3022166625
C       -0.3293538555   -3.0987907956   -1.5241176825
C        3.2686238651   -0.9545727702   -1.3794653787
C        1.7771637651   -1.2349538734   -1.1469730221
O        3.6361007244   -0.9469242216   -2.7554337741
S        1.4848126100   -2.9819385911   -1.6734602441
H        0.3103320599   -1.1620884366    0.4689807587
H        1.9439125279   -1.6074160446    0.9865923452
H        1.5643106833    0.0772318345    0.5623381157
H       -0.6221986566   -4.0553967242   -1.9631200934
H       -0.8211728702   -2.2937787622   -2.0776159257
H       -0.6476211226   -3.0805936177   -0.4795052698
H        3.8764176556   -1.6730169281   -0.8080478984
H        3.4996708595    0.0477918798   -1.0063654881
H        1.2262123277   -0.5889949532   -1.8402720173
H        3.3335845418   -1.7827353788   -3.1492621953
16   
torsion grid (-45,)
C        1.4462427907   -0.9693623024    0.4022499749
C       -0.3169925362   -3.0742402874   -1.6427273735
C        3.2337401107   -0.9411015603   -1.4006081405
C        1.7744292954   -1.2688205961   -1.0601776433
O        3.5095251937   -0.9882045579   -2.7955973667
S        1.5013417275   -3.0438177920   -1.4983018513
H        0.4112171879   -1.2282006244    0.6426337774
H        2.0990433242   -1.5382555512    1.0717284002
H        1.5798674854    0.0990621539    0.6119050816
H       -0.5964133912   -4.0848837270   -1.9494741300
H       -0.6621258779   -2.3662078783   -2.4011980890
H       -0.7960975388   -2.8552721220   -0.6853123576
H        3.9054385102   -1.6088201206   -0.8382384150
H        3.4485186314    0.0848259004   -1.0860843343
H        1.1441326257   -0.6753603885   -1.7321747703
H        3.1926363947   -1.8485510102   -3.1221338703
16   
torsion grid (-30,)
C        1.5225897364   -0.9568490114    0.5022472297
C       -0.2891491381   -3.0585302576   -1.7645596448
C        3.1778796379   -0.9277985841   -1.4267638476
C        1.7583410496   -1.2869017979   -0.9720613990
O        3.3639256983   -1.0560981874   -2.8300900393
S        1.4841439866   -3.0827358873   -1.3316647136
H        0.5131265476   -1.2391175653    0.8148451197
H        2.2321189374   -1.4927890470    1.1405456333
H        1.6434421270    0.1192201944    0.6789018711
H       -0.5785557800   -4.0870899207   -1.9925824346
H       -0.4696293857   -2.4348800087   -2.6439951625
H       -0.8944215171   -2.7029959765   -0.9265684922
H        3.9093168250   -1.5343030594   -0.8692942239
H        3.3720001983    0.1230783538   -1.1900659272
H        1.0543082232   -0.7342477026   -1.6034235695
H        3.0750667870   -1.9551720064   -3.0689815071
16   
torsion grid (-15,)
C        1.6033793353   -0.9268428387    0.6004799014
C       -0.2442855137   -3.0529821600   -1.8894879149
C        3.1021938894   -0.9248518056   -1.4522265210
C        1.7275886708   -1.2909237978   -0.8796235153
O        3.1986276301   -1.1464230428   -2.8523307498
S        1.4317043589   -3.1006527413   -1.1634877725
H        0.6123306664   -1.1814381805    0.9860817731
H        2.3437333194   -1.4658725466    1.2002912985
H        1.7627570527    0.1488829721    0.7458148234
H       -0.5311005636   -4.0859662982   -2.1008037351
H       -0.2524086147   -2.4833395500   -2.8221009004
H       -0.9644353008   -2.6262551997   -1.1865059568
H        3.8865701182   -1.4728305507   -0.9065516078
H        3.2792133860    0.1447850215   -1.3008681019
H        0.9663644162   -0.7643659540   -1.4640179836
H        2.9522710829   -2.0781337919   -2.9981741449
16   
torsion grid (0,)
C        1.6835670841   -0.8991255150    0.6867414574
C       -0.1827072238   -3.0439697922   -2.0041047879
C        3.0074819495   -0.9285770350   -1.4784502930
C        1.6824375801   -1.2860680791   -0.7927370881
O        3.0242692940   -1.2495139504   -2.8628644303
S        1.3484548510   -3.0998935425   -1.0056433797
H        0.7156015594   -1.1106991178    1.1483358424
H        2.4473452198   -1.4566643721    1.2388814798
H        1.8963049175    0.1708099654    0.8021888043
H       -0.4567670505   -4.0783893076   -2.2255489551
H       -0.0216134820   -2.5086552088   -2.9428320492
H       -0.9968458772   -2.5764418012   -1.4443146095
H        3.8385641279   -1.4183458404   -0.9475150327
H        3.1637607869    0.1532642327   -1.4161913170
H        0.8755062694   -0.7683056454   -1.3202374762
H        2.8491439271   -2.2066354549   -2.9192192726
16   
torsion grid (15,)
C        1.7564135834   -0.8789461961    0.7530582546
C       -0.1098716822   -3.0316947853   -2.0988974834
C        2.9041354551   -0.9393270964   -1.5025958774
C        1.6274474435   -1.2746427986   -0.7187542332
O        2.8584785456   -1.3480133303   -2.8641143846
S        1.2401024159   -3.0815541428   -0.8638850851
H        0.8191042806   -1.0484353387    1.2887646839
H        2.5393877778   -1.4609923700    1.2510210994
H        2.0204982445    0.1818795266    0.8411673356
H       -0.3685582423   -4.0676992194   -2.3312598977
H        0.2103737191   -2.5273922091   -3.0131522639
H       -0.9912248000   -2.5311935737   -1.6892961322
H        3.7712473474   -1.3812032893   -0.9884739826
H        3.0418499417    0.1467729182   -1.5185615701
H        0.7850791479   -0.7470732208   -1.1769012900
H        2.7700407554   -2.3176953383   -2.8516302807
16   
torsion grid (30,)
C        0.9313481500   -0.5219121969   -0.0094059266
C        0.8376085687   -1.2170793741   -4.0664469038
C        2.9361280279   -1.4666692893   -1.2741100365
C        1.5645977301   -0.7807879270   -1.3767243985
O        2.8759946106   -2.7515944696   -0.6683349248
S        0.4129556030   -1.8162842623   -2.3941332112
H       -0.0270703012   -0.0064190900   -0.1103019250
H        0.7696529383   -1.4603485395    0.5283581714
H        1.5996313710    0.0974326030    0.5995232332
H        0.2330193092   -1.7880747055   -4.7751387536
H        1.8933956215   -1.3795237102   -4.2993801822
H        0.5950879557   -0.1559595999   -4.1691477640
H        3.5958856269   -0.8649780183   -0.6395360526
H        3.3950568829   -1.5252109885   -2.2725313160
H        1.7062281296    0.1599769247   -1.9218757459
H        2.2539684841   -3.2778837638   -1.2023782228
16   
torsion grid (45,)
C        0.9365637524   -0.5550358789    0.0531975784
C        0.9168356976   -1.3088004200   -4.0527856292
C        2.8955608177   -1.3941739167   -1.3457036476
C        1.5189660339   -0.7130189952   -1.3533842889
O        2.8630557001   -2.7138928151   -0.8181638016
S        0.3114806718   -1.6782532311   -2.3691309702
H       -0.0293195065   -0.0437868175    0.0252803604
H        0.8055763180   -1.5279530314    0.5348385717
H        1.6223120165    0.0321047364    0.6738518839
H        0.2222718566   -1.7834269959   -4.7499360595
H        1.9171350365   -1.7120136640   -4.2282485537
H        0.9159155655   -0.2305103502   -4.2348933889
H        3.5735231170   -0.8250858724   -0.7005257159
H        3.3219960605   -1.3878117059   -2.3598054129
H        1.6232393347    0.2710566492   -1.8263076654
H        2.1583762361   -3.1847140984   -1.2998472195
16   
torsion grid (60,)
C        0.9435255707   -0.5889058771    0.1007125869
C        0.9849444943   -1.4036624739   -4.0253624497
C        2.8594552386   -1.3200257181   -1.4100409688
C        1.4881894367   -0.6372933357   -1.3306590467
O        2.8314312467   -2.6799123411   -0.9938359126
S        0.2301045325   -1.5150589198   -2.3641784394
H       -0.0382379217   -0.1081119159    0.1349852295
H        0.8579492719   -1.5936662866    0.5227153201
H        1.6275330362   -0.0156174935    0.7357565988
H        0.2363074386   -1.7687641409   -4.7324824098
H        1.8810370813   -2.0219190278   -4.1146083831
H        1.2251455347   -0.3664036503   -4.2753510396
H        3.5517085980   -0.8059590862   -0.7345499300
H        3.2668491200   -1.2303136581   -2.4273593846
H        1.5733203347    0.3856586480   -1.7162858589
H        2.0542256953   -3.0853611301   -1.4210198711
16   
torsion grid (75,)
C        0.9521758062   -0.6268825080    0.1281728211
C        1.0305540884   -1.4844149921   -3.9943621251
C        2.8354901953   -1.2534088133   -1.4650178837
C        1.4796484148   -0.5594398722   -1.3111300954
O        2.7909956858   -2.6430898942   -1.1583531710
S        0.1755138344   -1.3194408014   -2.3856567854
H       -0.0328902994   -0.1578234713    0.2112926070
H        0.8767940244   -1.6609469483    0.4734981303
H        1.6378198432   -0.0944851530    0.7962900125
H        0.2781936383   -1.8420506161   -4.7015370425
H        1.8464319170   -2.2096080186   -3.9557644714
H        1.4082199964   -0.5204881012   -4.3462984399
H        3.5434337596   -0.8030367619   -0.7607251701
H        3.2325231112   -1.0908922244   -2.4766396300
H        1.5673084832    0.4967156162   -1.5901531964
H        1.9512762096   -2.9860238473   -1.5151795191
16   
torsion grid (90,)
C        0.9524548576   -0.6760904965    0.1332893790
C        1.0504787222   -1.5467335501   -3.9681583333
C        2.8266399110   -1.1883124653   -1.5062709295
C        1.4864384585   -0.4866106276   -1.2943432000
O        2.7723859186   -2.5912770307   -1.2567379086
S        0.1535307792   -1.0975435454   -2.4366314722
H       -0.0231331492   -0.1953810666    0.2555089727
H        0.8499436601   -1.7342870285    0.3845881488
H        1.6450123090   -0.2192729650    0.8491610750
H        0.2850868871   -1.9157883549   -4.6554979839
H        1.7834895839   -2.3398063643   -3.8054553483
H        1.5379617228   -0.6817065404   -4.4254696068
H        3.5533316894   -0.7763914088   -0.7974762556
H        3.2071797324   -0.9901524836   -2.5172454941
H        1.5900093421    0.5921220804   -1.4538035899
H        1.9026782837   -2.9080845599   -1.5570214124
16   
torsion grid (105,)
C        0.9382993293   -0.7327825731    0.1156944045
C        1.0428580704   -1.6008703826   -3.9402771199
C        2.8355881743   -1.1181191982   -1.5313561331
C        1.4994310293   -0.4240218998   -1.2809451628
O        2.8013644078   -2.5262295441   -1.2961270734
S        0.1670447329   -0.8569530477   -2.5132791275
H       -0.0211802594   -0.2296407722    0.2696640215
H        0.7881925225   -1.8044955429    0.2638596992
H        1.6351126051   -0.3741556968    0.8823635252
H        0.2492433166   -1.9406298132   -4.6106118344
H        1.6547671895   -2.4623165022   -3.6656018142
H        1.6578948889   -0.8728095650   -4.4751867918
H        3.5731052780   -0.7125810590   -0.8301927969
H        3.1967847245   -0.9060113021   -2.5461723235
H        1.6255999017    0.6626815575   -1.3268959026
H        1.9293827971   -2.8563810657   -1.5664995292
16   
torsion grid (120,)
C        1.0792608129   -0.0244058205    0.1169743130
C        0.5028559330   -3.5095180752   -1.7696111292
C        2.6872558455   -1.5269488202   -1.0971355316
C        1.3722024493   -0.7646248453   -1.1924488365
O        3.0945147672   -1.9415779867   -2.4045443376
S       -0.1118948283   -1.7925856729   -1.6508731095
H        0.1285357561    0.5119430473    0.0562246324
H        1.0104981977   -0.7247227592    0.9560364099
H        1.8669282598    0.7082555093    0.3332493908
H       -0.3513051564   -4.0917197069   -2.1256287516
H        0.8082640507   -3.9091902814   -0.7990465338
H        1.3194136451   -3.5870712739   -2.4877297689
H        2.5891856822   -2.3866972142   -0.4191426012
H        3.4353199122   -0.8462960900   -0.6634777675
H        1.4867710985   -0.0438443760   -2.0080112762
H        3.9566975079   -2.3782060984   -2.3283462099
16   
torsion grid (135,)
C        1.0226330723   -0.0900933778    0.0713107813
C        0.6094648717   -3.5030337749   -1.6571764351
C        2.8060955041   -1.5337930804   -1.0207005334
C        1.5114041633   -0.7428551387   -1.2195654479
O        3.4194070830   -1.9144011015   -2.2519568846
S        0.1698514333   -1.7611048377   -2.0216339582
H        0.1089232357    0.4842094512   -0.1008045733
H        0.8030665000   -0.8484267828    0.8302709180
H        1.7848892182    0.5893764437    0.4718839396
H       -0.1383991810   -4.0948551895   -2.1909350514
H        0.5364432869   -3.7346635336   -0.5917685321
H        1.5988981193   -3.7787186733   -2.0268588235
H        2.6343843418   -2.4116490768   -0.3827488011
H        3.5291639061   -0.8927079509   -0.5050667871
H        1.7656528749   -0.0038452480   -1.9872339329
H        2.7126255037   -2.0706485932   -2.9005269859
16   
torsion grid (150,)
C        0.9907849380   -0.2090616209    0.0618427681
C        0.5643201894   -3.4402800951   -1.5785272734
C        2.8639228226   -1.4939291086   -1.0783023321
C        1.5453962638   -0.7353952007   -1.2599723924
O        3.4683630353   -1.8652805656   -2.3130938944
S        0.2975479052   -1.7388668458   -2.2016339031
H        0.0803850993    0.3730297550   -0.0998720806
H        0.7465519430   -1.0342893021    0.7393400991
H        1.7271753489    0.4328764484    0.5607094779
H       -0.1867038537   -4.0537037240   -2.0822005431
H        0.4011863271   -3.5116980619   -0.5001574862
H        1.5551715072   -3.8239988290   -1.8302465184
H        2.7147599471   -2.3726986784   -0.4346927608
H        3.5771872531   -0.8364346428   -0.5696458390
H        1.7793102196    0.0741208741   -1.9603701134
H        2.7491449875   -2.0716008668   -2.9366883158
16   
torsion grid (165,)
C        0.9757314390   -0.3297305179    0.0449690928
C        0.4811079051   -3.3850351675   -1.5044405274
C        2.9350930750   -1.4429930939   -1.1286582040
C        1.5802665563   -0.7441034873   -1.2956078834
O        3.5541868046   -1.7700387963   -2.3654626532
S        0.4197712006   -1.7517672440   -2.3278483333
H        0.0353362728    0.2075263252   -0.0992403027
H        0.7752957202   -1.2016529529    0.6764634733
H        1.6673615454    0.3237957221    0.5903345201
H       -0.2569539677   -4.0060696260   -2.0174449659
H        0.2026719141   -3.3170061392   -0.4499452118
H        1.4615414736   -3.8565961714   -1.6000205100
H        2.8207366647   -2.3357682574   -0.4955331073
H        3.6190140863   -0.7628853982   -0.6096608021
H        1.7580805038    0.1287424121   -1.9338624737
H        2.8452627396   -2.0636280714   -2.9675532191
16   
torsion grid (180,)
C        0.9911026263   -0.4475545852    0.0342021629
C        0.3526649048   -3.3379836477   -1.4242380461
C        3.0140227130   -1.3840689695   -1.1849692351
C        1.6154476145   -0.7690997917   -1.3234216743
O        3.6512935440   -1.6163132873   -2.4322600225
S        0.5275949674   -1.8033455245   -2.4032892612
H        0.0001815779   -0.0020823219   -0.0853388415
H        0.8908879861   -1.3449674852    0.6530867053
H        1.6237500959    0.2606662885    0.5822152475
H       -0.2542929304   -4.0142375128   -2.0307506425
H       -0.1662465909   -3.1569233609   -0.4803263095
H        1.3168577803   -3.8145029116   -1.2330961339
H        2.9564821748   -2.3089455293   -0.5899042328
H        3.6549963237   -0.6849883645   -0.6374569665
H        1.7152643698    0.1470651167   -1.9161833704
H        2.9844967764   -2.0299285770   -3.0117804869
