21   
torsion grid (-165,)
C        2.8341414429   -4.7450681371    1.3392462969
C        1.2471361481    0.8214244752    1.1988209845
C        0.5469796255   -0.6804819708    3.1017154133
C        2.6320088684   -3.2774121856    0.9650145118
C        1.2638723959   -0.6064900887    1.7505808236
N        2.9189164784   -2.4211194997    2.1336001989
N        2.6861599452   -1.0066472390    1.9087643366
H        2.6888574136   -5.3907374157    0.4672271916
H        3.8430513691   -4.9058609548    1.7305731545
H        2.1177992101   -5.0597619776    2.1078742460
H        1.7237735162    0.8736719898    0.2123852507
H        0.2200529424    1.1838820736    1.0913612294
H        1.7854845431    1.4956737386    1.8731465976
H        0.5186720865   -1.7012053362    3.4998016705
H       -0.4911928269   -0.3460099119    3.0042405085
H        1.0562579576   -0.0453889057    3.8340343901
H        3.3418174564   -3.0001202375    0.1753797370
H        1.6194216303   -3.1369747594    0.5526663726
H        0.7295676968   -1.2564561365    1.0377413041
H        2.2724808941   -2.6968029336    2.8708944086
H        3.1403874416   -0.8065215814    1.0179440586
21   
torsion grid (-150,)
C        2.8023844321   -4.7441910681    1.2626404805
C        1.1881430541    0.7389361643    1.1454444924
C        0.5921149771   -0.5746337857    3.2151378643
C        2.7717039562   -3.2512312421    0.9405365422
C        1.2393159592   -0.6306386788    1.8274571326
N        2.8560555954   -2.4611120837    2.1847381489
N        2.6629890982   -1.0306661252    1.9538985328
H        2.8131593174   -5.3383137582    0.3433396818
H        3.6927449761   -4.9913763417    1.8484563380
H        1.9202023912   -5.0432756610    1.8416401570
H        1.5951780765    0.6942799971    0.1280533898
H        0.1575612514    1.1006796749    1.0769747524
H        1.7730114540    1.4683390509    1.7158513067
H        0.6210711846   -1.5444515945    3.7244460359
H       -0.4597927385   -0.2792530722    3.1382657079
H        1.1194114327    0.1486244446    3.8454253191
H        3.6457289269   -2.9933057392    0.3293638156
H        1.8751855215   -3.0156405877    0.3409625404
H        0.6759227130   -1.3495793698    1.2063825462
H        2.0688441538   -2.7541186741    2.7624579698
H        3.0847105021   -0.8574785440    1.0415399308
21   
torsion grid (-135,)
C        2.8365796714   -4.7719827041    1.2464649616
C        1.1515922544    0.7459233775    1.1497004042
C        0.6317478801   -0.5136798387    3.2727510725
C        2.8544302592   -3.2760827277    0.9378928334
C        1.2011599427   -0.6129802707    1.8532608900
N        2.7450606294   -2.4960568924    2.1839167394
N        2.6124525109   -1.0577664501    1.9065954599
H        2.9833468253   -5.3565077788    0.3326862536
H        3.6309791255   -5.0255780545    1.9545295858
H        1.8787242929   -5.0754345976    1.6859734704
H        1.4964424348    0.6719732662    0.1113597860
H        0.1298036144    1.1375482667    1.1355477986
H        1.7902881106    1.4657970634    1.6721750705
H        0.6706224433   -1.4717739148    3.8023546106
H       -0.4156052965   -0.1944015642    3.2463314156
H        1.2097683068    0.2103725942    3.8558483475
H        3.8100261743   -3.0144554462    0.4666102102
H        2.0557864912   -3.0304966587    0.2135447631
H        0.5852894765   -1.3279443831    1.2749049400
H        1.8619945313   -2.7793116953    2.6099625245
H        2.9751565568   -0.9355685852    0.9606015478
21   
torsion grid (-120,)
C        2.9120565727   -4.8268112123    1.2694214834
C        1.1148920477    0.8078811502    1.1830631848
C        0.6922594566   -0.4577535711    3.3268662004
C        2.9398442017   -3.3368600827    0.9348167454
C        1.1269297207   -0.5648662922    1.8605221821
N        2.5457933616   -2.5436988021    2.1038183973
N        2.4917160661   -1.1103093782    1.7804045438
H        3.2577860665   -5.4192458044    0.4163806945
H        3.5579766965   -5.0377673174    2.1265401174
H        1.8968602881   -5.1593756873    1.5169581322
H        1.3660406813    0.7316768158    0.1184192978
H        0.1245218870    1.2667992234    1.2613066518
H        1.8427754017    1.4716382455    1.6609124419
H        0.7151739720   -1.4280324497    3.8332812475
H       -0.3281875582   -0.0663200181    3.3979358353
H        1.3690145099    0.2126393112    3.8663081335
H        3.9617026772   -3.0430331678    0.6647352592
H        2.3008227927   -3.1346932678    0.0532052677
H        0.4101945273   -1.2230070235    1.3291112949
H        1.5968327146   -2.8258491323    2.3580082233
H        2.8006401516   -1.0214185332    0.8109973509
21   
torsion grid (-105,)
C        2.9636170984   -4.8657369858    1.3173564525
C        1.0760177081    0.8690666010    1.2175617227
C        0.7919350064   -0.4300134645    3.3691041898
C        3.0236816797   -3.3823672953    0.9600469065
C        1.0504985834   -0.5193212386    1.8605251480
N        2.3183980880   -2.5865665669    1.9567208574
N        2.3362474582   -1.1710258383    1.6124627727
H        3.5231667860   -5.4590147359    0.5872661646
H        3.3912180272   -5.0381254470    2.3091757673
H        1.9299779909   -5.2316513137    1.3221272533
H        1.2159746314    0.8059939712    0.1318845227
H        0.1341648327    1.3941962334    1.4037355523
H        1.8935507424    1.4650881533    1.6358779636
H        0.8104904429   -1.4177252991    3.8385087151
H       -0.1847328277    0.0255458465    3.5649609833
H        1.5692115786    0.1777401915    3.8435561052
H        4.0673713398   -3.0456278566    0.9502362752
H        2.6258301288   -3.2239418859   -0.0629322532
H        0.2234999573   -1.1004307969    1.4010213084
H        1.3417954905   -2.8889810003    2.0282138951
H        2.5937314923   -1.0855082663    0.6256023827
21   
torsion grid (-90,)
C        2.9778357702   -4.8754906474    1.3509337480
C        1.0378119918    0.8946232966    1.2366703837
C        0.8925455677   -0.4261600670    3.3922426313
C        3.0827927167   -3.3900025500    1.0132520820
C        1.0033878470   -0.4997673877    1.8656397265
N        2.1593374275   -2.6126923679    1.8237054647
N        2.2199570543   -1.2123401634    1.4857433797
H        3.6961460022   -5.4539589513    0.7615069637
H        3.1826369221   -5.0428964388    2.4123535622
H        1.9766020272   -5.2643746056    1.1302188880
H        1.0732401315    0.8413140886    0.1419849008
H        0.1443382191    1.4615900403    1.5153036603
H        1.9188005789    1.4448155836    1.5830519494
H        0.9174463965   -1.4246390285    3.8361786813
H       -0.0419223143    0.0642372933    3.6859246040
H        1.7344884000    0.1432846988    3.7995307367
H        4.0934571169   -3.0245673959    1.2279853229
H        2.9136903505   -3.2402866611   -0.0731571019
H        0.1069290324   -1.0303011738    1.4802720801
H        1.1936462561   -2.9470521989    1.7207543846
H        2.4124787409   -1.1137423579    0.4829166373
21   
torsion grid (-75,)
C        2.9826883989   -4.8743546262    1.3835432056
C        1.0085015677    0.9102153811    1.2536101452
C        0.9812390028   -0.4370360759    3.3984045351
C        3.1124567471   -3.3855577574    1.0687160121
C        0.9729782464   -0.4907107596    1.8681308400
N        2.0445914479   -2.6314757785    1.7079275781
N        2.1333690150   -1.2384945200    1.3856229815
H        3.8039995799   -5.4355537850    0.9268485733
H        3.0051869585   -5.0417344577    2.4644843596
H        2.0432600607   -5.2847151483    0.9939574211
H        0.9618803618    0.8714298587    0.1585591191
H        0.1577394500    1.5028686358    1.6033357427
H        1.9306960244    1.4266313958    1.5399480216
H        1.0054289440   -1.4444493518    3.8206428732
H        0.0891697042    0.0795246551    3.7692546184
H        1.8700776133    0.0988260059    3.7480784778
H        4.0610234234   -2.9951597019    1.4521978217
H        3.1279932678   -3.2378996509   -0.0302256035
H        0.0327272709   -0.9838990522    1.5452653004
H        1.1207784306   -2.9956091533    1.4426315441
H        2.2498607201   -1.1212531078    0.3720791182
21   
torsion grid (-60,)
C        2.9744292531   -4.8704664757    1.4143606610
C        0.9788999726    0.9208186330    1.2678693996
C        1.0726826136   -0.4524671482    3.3946136749
C        3.1258875450   -3.3773481306    1.1301015520
C        0.9528380780   -0.4859076333    1.8695161731
N        1.9512725646   -2.6473649441    1.5950521818
N        2.0626814456   -1.2548398615    1.2964435744
H        3.8688031558   -5.4143120498    1.0942050965
H        2.8251114918   -5.0453630188    2.4841562916
H        2.1180608360   -5.2958507651    0.8769793998
H        0.8536234316    0.8966283967    0.1783515040
H        0.1699555345    1.5296713462    1.6829242644
H        1.9313125761    1.4127502286    1.4923163038
H        1.1148618946   -1.4676849140    3.7960195745
H        0.2154993334    0.0668923373    3.8371339592
H        1.9898013691    0.0703169634    3.6869676852
H        3.9916471820   -2.9706539803    1.6619151786
H        3.3133428883   -3.2221289791    0.0497743862
H       -0.0173348802   -0.9535460249    1.6091732363
H        1.0986661012   -3.0361768663    1.1743160067
H        2.1036038487   -1.1113741078    0.2808225815
21   
torsion grid (-45,)
C        2.9658064196   -4.8567363809    1.4577238773
C        0.9538812979    0.9339877984    1.2888979279
C        1.1635611110   -0.4886959888    3.3744513985
C        3.1240204523   -3.3609740114    1.1908381183
C        0.9366088474   -0.4847297336    1.8621817045
N        1.8726405141   -2.6589268605    1.4774349870
N        1.9934230844   -1.2630853239    1.1971454892
H        3.9096988701   -5.3808962652    1.2771620154
H        2.6623516519   -5.0334371121    2.4942403342
H        2.2088173952   -5.3036255023    0.8013818251
H        0.7536952072    0.9367174227    0.2101329570
H        0.1893966030    1.5514056841    1.7703924829
H        1.9304708341    1.4007522227    1.4563773381
H        1.2106588173   -1.5146673516    3.7471341073
H        0.3502704470    0.0355889324    3.8883551569
H        2.1091472409    0.0100045136    3.6140874550
H        3.8907690532   -2.9326213367    1.8431350067
H        3.4639023135   -3.2015469494    0.1508353421
H       -0.0564349777   -0.9281413059    1.6597526844
H        1.1145509622   -3.0724692332    0.9244446428
H        1.9484100906   -1.0963102124    0.1869078344
21   
torsion grid (-30,)
C        2.9508994598   -4.8359360783    1.5067430181
C        0.9347857632    0.9451467642    1.3120818681
C        1.2583849235   -0.5355227303    3.3414588903
C        3.1056295081   -3.3373765543    1.2538558619
C        0.9276881285   -0.4874574866    1.8499180046
N        1.8038137353   -2.6692225101    1.3611044106
N        1.9273558494   -1.2666600892    1.0946344604
H        3.9238481588   -5.3356648130    1.4616153510
H        2.5113946033   -5.0181597824    2.4923948789
H        2.3037069870   -5.3052945033    0.7552619378
H        0.6674951251    0.9793742003    0.2483309791
H        0.2128363984    1.5625069426    1.8554499020
H        1.9280227415    1.3919418330    1.4285312199
H        1.3012930075   -1.5720657818    3.6848597345
H        0.4969330015   -0.0050534801    3.9238841518
H        2.2312359648   -0.0669416868    3.5274746717
H        3.7611294270   -2.8870677696    2.0049330019
H        3.5816469328   -3.1682229527    0.2720405410
H       -0.0821402295   -0.9113646212    1.7050305753
H        1.1583626624   -3.1027890511    0.6957691411
H        1.7913240869   -1.0825768434    0.0976400851
21   
torsion grid (-15,)
C        2.9313082172   -4.8101887994    1.5510211651
C        0.9152306433    0.9493128717    1.3342281467
C        1.3559590089   -0.5849153181    3.3004471234
C        3.0739330487   -3.3065872056    1.3230290683
C        0.9269838003   -0.4961453922    1.8362501889
N        1.7463186877   -2.6792238398    1.2504935978
N        1.8693272520   -1.2659076408    0.9974684248
H        3.9157463070   -5.2802827814    1.6423717349
H        2.3634779345   -5.0110530560    2.4649247795
H        2.4104788778   -5.2952966503    0.7158544007
H        0.5781536120    1.0125534756    0.2917737973
H        0.2378061806    1.5602379677    1.9389060854
H        1.9188595494    1.3837764313    1.3945279214
H        1.4056850518   -1.6303772981    3.6158691728
H        0.6411117428   -0.0623186849    3.9456520942
H        2.3446673782   -0.1317536770    3.4340965821
H        3.6043414511   -2.8425112988    2.1597236841
H        3.6743016876   -3.1129629779    0.4183189442
H       -0.0920108326   -0.9108884455    1.7490694122
H        1.2310707464   -3.1222000553    0.4879642710
H        1.6428958909   -1.0716746193    0.0210220901
21   
torsion grid (0,)
C        2.9171376425   -4.7807431378    1.5885361868
C        0.9045185593    0.9487623355    1.3566138413
C        1.4412786239   -0.6346128363    3.2574650209
C        3.0332869175   -3.2713166665    1.3864090320
C        0.9308181563   -0.5086147010    1.8224337157
N        1.6993646448   -2.6903909529    1.1561116859
N        1.8162482018   -1.2646659346    0.9089639929
H        3.8993456248   -5.2177706704    1.7953940965
H        2.2508792630   -5.0096623139    2.4261998367
H        2.5176379266   -5.2756893175    0.6943197795
H        0.5194082491    1.0386789290    0.3329244136
H        0.2591074602    1.5477845964    2.0066391946
H        1.9120971896    1.3774283339    1.3793804066
H        1.4645217274   -1.6842947885    3.5622184600
H        0.7864336587   -0.0921658345    3.9482479243
H        2.4534662607   -0.2227060887    3.3391664353
H        3.4431058449   -2.7995358991    2.2842809276
H        3.7282893392   -3.0437153118    0.5621838912
H       -0.0932903454   -0.9163338806    1.7850911395
H        1.3215890624   -3.1348722158    0.3190356683
H        1.4904022278   -1.0739706389   -0.0386029642
21   
torsion grid (15,)
C        2.9059813675   -4.7542448164    1.6168620178
C        0.9034911002    0.9438594456    1.3732945459
C        1.5106307994   -0.6732537765    3.2206920231
C        2.9892891801   -3.2394779861    1.4407003669
C        0.9387670066   -0.5223109977    1.8115035870
N        1.6624486291   -2.7035967400    1.0779531885
N        1.7695707659   -1.2655059909    0.8340129083
H        3.8778225592   -5.1603952835    1.9154047738
H        2.1692131231   -5.0162061967    2.3826633332
H        2.6132755989   -5.2511520615    0.6832853417
H        0.4723012953    1.0552551808    0.3704071056
H        0.2936774315    1.5357333296    2.0631147711
H        1.9145948393    1.3641252614    1.3561414307
H        1.5009180421   -1.7212960864    3.5313446406
H        0.9109373692   -0.1023707609    3.9379186439
H        2.5418095196   -0.3040561172    3.2574533575
H        3.2932083336   -2.7690356016    2.3796199126
H        3.7518357491   -2.9743878704    0.6917593963
H       -0.0882603538   -0.9231898945    1.8157705130
H        1.4262055964   -3.1391419004    0.1860911682
H        1.3379282830   -1.0877581309   -0.0729803404
21   
torsion grid (30,)
C        2.8917296282   -4.7498426673    1.6055651323
C        0.8929326372    0.9321299646    1.3733978158
C        1.5867282727   -0.6685273366    3.1982357252
C        2.9354747188   -3.2260669528    1.5097880214
C        0.9548427362   -0.5337061572    1.8129660689
N        1.6337545158   -2.7212312559    1.0195039725
N        1.7334416373   -1.2707423118    0.7849230704
H        3.8382021651   -5.1370687920    1.9964626882
H        2.0833896108   -5.0747067973    2.2680473339
H        2.7277315531   -5.2092069621    0.6226073084
H        0.4275458646    1.0381058798    0.3854892335
H        0.3015935896    1.5199870827    2.0824490715
H        1.8992208421    1.3607374689    1.3209944444
H        1.5407934776   -1.7009022607    3.5538860967
H        1.0471536814   -0.0444378156    3.9189345032
H        2.6341496356   -0.3472378463    3.1776413269
H        3.1211757634   -2.7991571712    2.4976286766
H        3.7607496967   -2.8966528022    0.8602336012
H       -0.0687012705   -0.9388937102    1.8673225391
H        1.5504936578   -3.1332140577    0.0889251303
H        1.2032438216   -1.1077724933   -0.0719890753
21   
torsion grid (45,)
C        2.7840126798   -4.7475224183    1.5309193257
C        0.4191635574    0.6044980541    1.6526548372
C        2.5976452439   -0.1093051641    2.7275168934
C        1.9297831317   -3.4873423873    1.6548471576
C        1.3366768718   -0.5728130697    1.9933006952
N        2.5475166128   -2.3880653051    0.8764169553
N        1.7048461455   -1.2268128577    0.7395752296
H        2.3667945265   -5.5604402369    2.1336171740
H        2.8338436727   -5.0965479821    0.4919390477
H        3.8058972018   -4.5529135796    1.8705493964
H       -0.4888592109    0.2681523439    1.1372025219
H        0.1099880465    1.1236343504    2.5652987295
H        0.9384287197    1.3167674056    1.0032976645
H        3.2637640343   -0.9507206194    2.9349049666
H        2.3307090367    0.3689671883    3.6760902522
H        3.1481752193    0.6083723306    2.1104145311
H        0.8938205839   -3.6918568218    1.3274851289
H        1.8796066811   -3.1848753002    2.7054146038
H        0.7764772845   -1.2479901310    2.6647967134
H        2.6230401843   -2.7575036166   -0.0708629984
H        0.8943160121   -1.4240891771    0.1476338595
21   
torsion grid (60,)
C        2.7622125459   -4.7773268967    1.5274929237
C        0.4041801922    0.5879012467    1.6806599427
C        2.6458739240   -0.0254447353    2.6876149954
C        1.8676723030   -3.5410297731    1.5931783510
C        1.3693984501   -0.5486874377    2.0262934355
N        2.5430064419   -2.3938152258    0.9519190338
N        1.7032802498   -1.2443593808    0.7796891117
H        2.2880267666   -5.6266285145    2.0294317246
H        2.9589695510   -5.0726389454    0.4894078961
H        3.7242542885   -4.5814428205    2.0107463031
H       -0.5155514260    0.2070197662    1.2197670135
H        0.1203729630    1.1363569614    2.5843073893
H        0.8738748371    1.2869145093    0.9808675582
H        3.3404838944   -0.8438320288    2.8919655880
H        2.4072216371    0.4784460676    3.6306109818
H        3.1482822549    0.6862470497    2.0238282165
H        0.8886810640   -3.7527157709    1.1237260139
H        1.6710664555   -3.2875437701    2.6396709357
H        0.8585041043   -1.2152285666    2.7437774829
H        2.7766973470   -2.6949517192    0.0067459036
H        0.8591383910   -1.4856470093    0.2513118841
21   
torsion grid (75,)
C        2.7138461988   -4.8131202770    1.5470640584
C        0.3795318345    0.5419155304    1.7390918042
C        2.7093362169    0.0885484714    2.6247344565
C        1.7934400529   -3.5953990185    1.4893935402
C        1.4265094756   -0.5262120059    2.0627304338
N        2.5402024024   -2.4121693360    1.0299580641
N        1.7270028688   -1.2546604058    0.8216845150
H        2.1706913271   -5.6933078815    1.9054401161
H        3.1180642177   -5.0528499616    0.5559622299
H        3.5566050214   -4.6262142501    2.2193563201
H       -0.5515737100    0.0941857818    1.3701186657
H        0.1371620127    1.1235974618    2.6337974106
H        0.7577266298    1.2265247939    0.9723746225
H        3.4618869424   -0.6862600776    2.7901470589
H        2.5088224012    0.5934862292    3.5762265527
H        3.1187543014    0.8186117802    1.9179589773
H        0.9251211234   -3.8080561863    0.8371367687
H        1.3969063222   -3.3858640455    2.4881377354
H        1.0010617603   -1.1961644516    2.8305383879
H        2.9453163937   -2.6357979491    0.1224566546
H        0.8592324419   -1.5092011964    0.3387043125
21   
torsion grid (90,)
C        2.6761354492   -4.8412063379    1.5573917978
C        0.3640099802    0.5154146813    1.7879354167
C        2.7497191056    0.1670995028    2.5659448097
C        1.7526333894   -3.6342399200    1.4031706784
C        1.4630716835   -0.5060336855    2.0874795836
N        2.5290348823   -2.4268232351    1.1000071819
N        1.7303940391   -1.2662164596    0.8523041872
H        2.1010247850   -5.7401637054    1.8009940464
H        3.2263632413   -5.0397312639    0.6297274113
H        3.4061513240   -4.6672672181    2.3535396893
H       -0.5688908081    0.0256762673    1.4818909251
H        0.1477158917    1.1177722814    2.6755775577
H        0.6769540728    1.1882937213    0.9821906033
H        3.5330559270   -0.5800692352    2.7159087262
H        2.5820297546    0.6933241596    3.5123549908
H        3.0987590757    0.8893436729    1.8195925662
H        0.9939750755   -3.8398802753    0.6237086038
H        1.2086036011   -3.4620875527    2.3385484448
H        1.1047907664   -1.1739889393    2.8901183601
H        3.0832509836   -2.5834491931    0.2604026135
H        0.8368640156   -1.5441742596    0.4342244913
21   
torsion grid (105,)
C        2.6648643759   -4.8722381896    1.5455309279
C        0.3586507147    0.5264570409    1.8155017819
C        2.7741768180    0.2193160910    2.5120282795
C        1.7313949332   -3.6809538685    1.3377897459
C        1.4740871482   -0.4777465521    2.1127416740
N        2.4980720389   -2.4446551990    1.1882273285
N        1.6982036849   -1.2898971687    0.8971493560
H        2.0904396561   -5.7950753624    1.6740992695
H        3.3269209343   -5.0100964695    0.6823091252
H        3.2888678498   -4.7221871780    2.4315669952
H       -0.5828952580    0.0213805123    1.5655873636
H        0.1729030271    1.1635222486    2.6857415514
H        0.6357790331    1.1677757027    0.9718024732
H        3.5656261589   -0.5188000740    2.6655905632
H        2.6414933962    0.7849325059    3.4410915969
H        3.0913603469    0.9108276187    1.7232951576
H        1.0767702756   -3.8694078728    0.4649811689
H        1.0756912863   -3.5674106645    2.2094653536
H        1.1553145713   -1.1209673934    2.9510476613
H        3.1764434543   -2.5340014329    0.4347961764
H        0.7814817894   -1.5991812888    0.5626691354
21   
torsion grid (120,)
C        2.6702393401   -4.9140905551    1.5090584903
C        0.3576419998    0.5620058718    1.8316364111
C        2.7944669426    0.2660739922    2.4503972896
C        1.7210042590   -3.7402149633    1.2758201626
C        1.4719301438   -0.4377414114    2.1487704011
N        2.4485284856   -2.4738491123    1.3269592255
N        1.6373238010   -1.3293659065    0.9781289650
H        2.1224426485   -5.8615376655    1.4917570137
H        3.4395026199   -4.9601655388    0.7290866001
H        3.1717704218   -4.8175993846    2.4765915057
H       -0.5990021523    0.0558469772    1.6504381949
H        0.2134707086    1.2545302740    2.6667582791
H        0.6081728020    1.1455551752    0.9391705550
H        3.5807172650   -0.4695908768    2.6402175194
H        2.7005684105    0.9052777995    3.3352774926
H        3.0960698651    0.8884462314    1.6001411774
H        1.1918829046   -3.8767974007    0.3135068364
H        0.9570847842   -3.7207980905    2.0632714408
H        1.1836040600   -1.0266497078    3.0359979886
H        3.2245177575   -2.4867640228    0.6678960226
H        0.7037091679   -1.6709786793    0.7421311136
21   
torsion grid (135,)
C        2.7038752255   -4.7703773854    1.4777248384
C        0.4290257225    0.6198185535    1.6336312590
C        2.5800850277   -0.2019210426    2.6777811332
C        1.9221077013   -3.4764016623    1.7019030741
C        1.2990290918   -0.6014721409    1.9401885832
N        2.2827079780   -2.5035211917    0.6728042636
N        1.6369975093   -1.2418940874    0.6618616377
H        2.4344518248   -5.5199278241    2.2287678894
H        2.4998781757   -5.1790607639    0.4835144488
H        3.7838451027   -4.5957974081    1.5579547473
H       -0.4994539940    0.3295115074    1.1271717079
H        0.1549886055    1.1395104796    2.5570222948
H        0.9671263572    1.3202317084    0.9860838529
H        3.2214725080   -1.0692387918    2.8648344396
H        2.3438988718    0.2526485454    3.6459234733
H        3.1501039943    0.5180531217    2.0806864464
H        0.8459392032   -3.6729174312    1.6165428356
H        2.0991215458   -3.1208152140    2.7314047939
H        0.7171443459   -1.2721320619    2.5956145514
H        3.2860750923   -2.3652655871    0.5947067423
H        0.8372263459   -1.2974383177    0.0368896724
21   
torsion grid (150,)
C        2.8363572766   -4.7205213293    1.4390413240
C        1.3348149784    0.9322130470    1.2952982741
C        0.4736321597   -0.8918260261    2.8191385010
C        2.3519215475   -3.3047955778    1.1285303344
C        1.3373609405   -0.5680522591    1.5980643378
N        3.0225550052   -2.3521943506    2.0201092657
N        2.7348716410   -0.9662694222    1.8523454113
H        2.3653660552   -5.4469182127    0.7688271257
H        3.9223974632   -4.7910426736    1.3275807765
H        2.5821917858   -5.0062674085    2.4671034591
H        1.9497418136    1.1613026653    0.4164633968
H        0.3186340806    1.2831820338    1.0893331930
H        1.7338209325    1.4949258286    2.1456637385
H        0.4657832384   -1.9652774667    3.0357416079
H       -0.5631252142   -0.5820237093    2.6510560688
H        0.8571159790   -0.3690737420    3.7020674577
H        2.6164096299   -3.0378395983    0.0976893264
H        1.2515231956   -3.2746723780    1.1935871344
H        0.9116854095   -1.0892587332    0.7238789290
H        2.8548274007   -2.5881639665    2.9949056976
H        3.3377609166   -0.6258337149    1.1065873255
21   
torsion grid (165,)
C        2.8404614219   -4.7218215444    1.4465505855
C        1.3223248434    0.9309149248    1.2970529169
C        0.4977356039   -0.8828875112    2.8525602189
C        2.3951847988   -3.3008144052    1.1035267055
C        1.3302500031   -0.5676499920    1.6085730575
N        3.0137464252   -2.3524120409    2.0441045557
N        2.7412183636   -0.9619195138    1.8287591041
H        2.4170723724   -5.4423930433    0.7392062630
H        3.9311962759   -4.8014307751    1.4202671814
H        2.5046672247   -5.0078580681    2.4507561340
H        1.9237165029    1.1549576688    0.4076480528
H        0.3030642286    1.2811533259    1.1047805164
H        1.7359853172    1.4980906080    2.1371939291
H        0.4532299356   -1.9591191293    3.0520125600
H       -0.5316207761   -0.5330497202    2.7237282443
H        0.9274410936   -0.3887502373    3.7308165054
H        2.7372437945   -3.0359598657    0.0951788188
H        1.2937995475   -3.2563340128    1.0899655112
H        0.8824455554   -1.0945063115    0.7493868172
H        2.7001270859   -2.5694089737    2.9876451072
H        3.2763566173   -0.6972083770    1.0032999003
21   
torsion grid (180,)
C        2.8504353095   -4.7294153622    1.4395358527
C        1.3058247585    0.9205028992    1.2867677025
C        0.5175118076   -0.8451699126    2.9130988011
C        2.4600748768   -3.3007054541    1.0631853107
C        1.3121533863   -0.5701526348    1.6354138643
N        2.9890772463   -2.3629580572    2.0727751148
N        2.7334583827   -0.9669600434    1.8170814689
H        2.5037479497   -5.4390730434    0.6812312903
H        3.9364382568   -4.8188481854    1.5356915609
H        2.4012029605   -5.0217099977    2.3964222533
H        1.8771373172    1.1169135289    0.3714428291
H        0.2834803613    1.2760696351    1.1224898514
H        1.7552269154    1.5033872202    2.0971634338
H        0.4377255257   -1.9170353521    3.1264551509
H       -0.5027729340   -0.4601229381    2.8180442291
H        0.9961736947   -0.3579212029    3.7697053388
H        2.9111225798   -3.0342291603    0.0990151786
H        1.3671432946   -3.2407014387    0.9340874516
H        0.8322048377   -1.1151116870    0.8057343625
H        2.5273965596   -2.5745641220    2.9553400697
H        3.2008831486   -0.7706016856    0.9323315700
