18   
torsion grid (-165,)
C        2.8413968266   -0.2575545832    3.5591566845
C        0.1429915801   -0.4229044888    1.0235204927
C        1.2881604213   -0.0229575633    1.7033509354
C       -0.6078437208   -1.4797192839    1.5499820413
C        1.6419506153   -0.6844389407    2.8918809021
C        0.8124481992   -1.7379636868    3.3386448954
C        1.1327361511   -2.4469672897    4.6304402122
C        0.4371360109   -4.1222797284    6.1226218787
N        3.8395063893    0.1747083576    3.9760252806
N       -0.2816096111   -2.1237454185    2.6740389912
O        1.9020886550   -1.9919059402    5.4562126487
O        0.4350439853   -3.5814716409    4.7835385943
H       -0.1640450167    0.0675922559    0.1047835380
H        1.9111747040    0.7861527697    1.3350843688
H       -1.5091083038   -1.8237438825    1.0457195053
H       -0.2291661427   -4.9832809690    6.0851360192
H        0.0661352896   -3.3744153153    6.8273901334
H        1.4453157065   -4.4249446427    6.4144511842
18   
torsion grid (-150,)
C        2.9300396169   -0.3047473694    3.4994481591
C        0.1237719564   -0.4379693341    1.0760430654
C        1.3015895309   -0.0454144492    1.7039434616
C       -0.6088583946   -1.4908313603    1.6338975331
C        1.7002964352   -0.7091268765    2.8756890157
C        0.8879481358   -1.7612331483    3.3553107049
C        1.2362844726   -2.4557559151    4.6489256325
C        0.4047636035   -4.1439467825    6.0666372928
N        3.9534431497    0.0811914020    3.8995595895
N       -0.2347054225   -2.1436401218    2.7393224558
O        1.8391778188   -1.8960444552    5.5446195968
O        0.7166101933   -3.6904798295    4.7305225879
H       -0.2210778451    0.0547887713    0.1720718508
H        1.9133027349    0.7589042272    1.3072773374
H       -1.5351592843   -1.8267464285    1.1714154536
H       -0.1260298109   -5.0860312447    5.9341766100
H       -0.2328144596   -3.4094428376    6.5645503475
H        1.3156949333   -4.2932744321    6.6505959195
18   
torsion grid (-135,)
C        3.0172861915   -0.3325830678    3.4033490913
C        0.0876756742   -0.4586750673    1.1264430932
C        1.3000692743   -0.0688513719    1.6875589498
C       -0.6182736098   -1.5063758452    1.7265427471
C        1.7579092458   -0.7305983847    2.8380858863
C        0.9712190450   -1.7809267644    3.3611194402
C        1.3684030212   -2.4709798401    4.6437513751
C        0.3395859655   -4.1451110098    5.9632195921
N        4.0586560627    0.0401343236    3.7678354648
N       -0.1847183686   -2.1616710816    2.8093066404
O        1.9263297377   -1.8789803269    5.5455858871
O        0.9347295887   -3.7446308845    4.7090020157
H       -0.3040058334    0.0327424725    0.2410324720
H        1.8919969068    0.7319305934    1.2552474719
H       -1.5710475167   -1.8375780621    1.3176971534
H        0.1200448569   -5.2071324310    5.8589495932
H       -0.5858301968   -3.5822357992    6.1136437566
H        1.0259603690   -3.9758771608    6.7955863103
18   
torsion grid (-120,)
C        3.0822493831   -0.3054116454    3.3592954587
C        0.0531039971   -0.4713710192    1.2183769372
C        1.2857783628   -0.0665602317    1.7215622475
C       -0.6130488744   -1.5262286437    1.8510787808
C        1.8053691664   -0.7218698585    2.8495571361
C        1.0586316880   -1.7837036274    3.4059927350
C        1.5184799951   -2.4819775650    4.6626596391
C        0.2765013868   -4.1040437269    5.8729185089
N        4.1313183723    0.0848920507    3.6806886860
N       -0.1188288835   -2.1773294826    2.9099022598
O        2.1267737271   -1.9003583486    5.5358018422
O        1.1052803024   -3.7677216576    4.7398782129
H       -0.3851099896    0.0145151451    0.3519554392
H        1.8465399443    0.7414651855    1.2620121688
H       -1.5811596386   -1.8668716912    1.4886747595
H        0.2254351098   -5.1924267341    5.8980217196
H       -0.7222620837   -3.6858073998    5.7161503931
H        0.7148071943   -3.7269989544    6.8004011456
18   
torsion grid (-105,)
C        3.0968399089   -0.2576840037    3.3581433825
C        0.0283321244   -0.5056329342    1.2849770492
C        1.2602869751   -0.0704419426    1.7628990587
C       -0.5967438485   -1.5782197227    1.9303454123
C        1.8220816071   -0.7140911690    2.8780691221
C        1.1169349213   -1.7979428889    3.4465145172
C        1.6330555246   -2.5053817991    4.6759173188
C        0.1780951833   -4.0270766971    5.7767187324
N        4.1377359731    0.1759596597    3.6492483124
N       -0.0624006410   -2.2184957655    2.9751026894
O        2.3374569558   -1.9505115256    5.4897454736
O        1.2049044968   -3.7892317235    4.7915807626
H       -0.4406779131   -0.0299173784    0.4291003020
H        1.7897119112    0.7531565095    1.2939146852
H       -1.5640313853   -1.9421130852    1.5889579958
H        0.0768932494   -5.1098626654    5.8507196970
H       -0.7631246245   -3.5858660378    5.4351381673
H        0.4735945362   -3.6145136961    6.7461686029
18   
torsion grid (-90,)
C        3.0703339682   -0.2163318918    3.3967625350
C       -0.0044065483   -0.5563119440    1.3534440830
C        1.2103864862   -0.0805130333    1.8348027120
C       -0.5746426169   -1.6739044798    1.9729731895
C        1.8151494285   -0.7316772537    2.9238097033
C        1.1647504739   -1.8622373292    3.4683082380
C        1.7566161587   -2.6041143910    4.6437029214
C        0.0975760990   -3.9298804559    5.7264827320
N        4.0813037197    0.2951005926    3.6670552238
N       -0.0028976495   -2.3153908219    2.9956749987
O        2.6496383379   -2.1372762754    5.3138548992
O        1.2431361148   -3.8465400772    4.8542153739
H       -0.5024697302   -0.0767623278    0.5163193338
H        1.6966967213    0.7811714351    1.3881300492
H       -1.5274386579   -2.0720470915    1.6289787367
H       -0.1214939839   -4.9928785726    5.8279584193
H       -0.7576623281   -3.4149738461    5.2798401705
H        0.3393717534   -3.5078951475    6.7075926056
18   
torsion grid (-75,)
C        2.9722815539   -0.1859475117    3.5269812854
C       -0.0363004964   -0.6001552844    1.4018791610
C        1.1334200367   -0.0763428371    1.9411868123
C       -0.5354236354   -1.7957129704    1.9300503778
C        1.7752737200   -0.7670905280    2.9838825653
C        1.1983297080   -1.9761933490    3.4354292071
C        1.8697091592   -2.7899547165    4.5205132853
C        0.0515884948   -3.7446370017    5.7485953538
N        3.9090847153    0.4112378790    3.8772286468
N        0.0632364090   -2.4637724917    2.9197287145
O        2.9765829960   -2.5149366451    4.9256813154
O        1.2142272422   -3.9127960971    4.9132432063
H       -0.5566095235   -0.0953721391    0.5936152647
H        1.5582416330    0.8525244034    1.5735257833
H       -1.4530375074   -2.2335017307    1.5413846605
H       -0.3508313798   -4.7461321336    5.9006631785
H       -0.6994702695   -3.1192002542    5.2586967679
H        0.3470878576   -3.3154398970    6.7115942729
18   
torsion grid (-60,)
C        2.9613171847   -0.1640585429    3.6937611238
C        0.0313067399   -0.5211649993    1.4453998304
C        1.1602037296    0.0098590824    2.0610854994
C       -0.4240407440   -1.7771108498    1.8593426508
C        1.8098182918   -0.7401156763    3.0557520232
C        1.2759099793   -2.0038856621    3.3937822733
C        1.9865486927   -2.8928035562    4.3937136366
C        0.0865238903   -3.5510928419    5.7101252382
N        3.8550991590    0.4181709290    4.1611688037
N        0.1748232642   -2.4956992485    2.8147406389
O        3.1798137410   -2.7947990295    4.5735302772
O        1.2637496610   -3.8932309065    4.9506378186
H       -0.4924665512    0.0252058448    0.6670176311
H        1.5466111212    0.9865800196    1.7868639523
H       -1.3079216483   -2.2233878642    1.4075410848
H       -0.3647444373   -4.5014828660    5.9945767980
H       -0.6232524747   -2.9739681167    5.1132282637
H        0.3771973625   -2.9988829710    6.6093630773
18   
torsion grid (-45,)
C        2.9808954621   -0.1714295535    3.6239357955
C       -0.0294727591   -0.4987368590    1.4761426484
C        1.1161365526    0.0304340781    2.0629673176
C       -0.4547539604   -1.7701585956    1.8732399995
C        1.8110844051   -0.7376098205    3.0113034096
C        1.3025091904   -2.0144228765    3.3375108023
C        2.0664680367   -2.9281235346    4.2740979860
C        0.1020664666   -3.5584909642    5.5348641521
N        3.8875070718    0.3968146155    4.0835797202
N        0.1864827436   -2.5051097475    2.7887606884
O        3.2756350709   -2.8855674410    4.3289829577
O        1.3677413421   -3.8850808761    4.9188446116
H       -0.5880934348    0.0608453298    0.7321925370
H        1.4804244199    1.0188174677    1.8004556026
H       -1.3487235362   -2.2161186055    1.4415572951
H        0.0806863341   -4.1089932073    6.4767011867
H       -0.7179032151   -3.8698707529    4.8860578994
H        0.0236097971   -2.4877194214    5.7404104796
18   
torsion grid (-30,)
C        2.9264194188   -0.1743115836    3.6486940657
C       -0.0737913967   -0.4859027189    1.4774362524
C        1.0522231564    0.0547514250    2.0918719441
C       -0.4534242576   -1.7896177867    1.8100903245
C        1.7734548117   -0.7351061957    3.0012160210
C        1.3072900997   -2.0408703313    3.2667128001
C        2.1098612638   -2.9783327003    4.1457783651
C        0.1511651743   -3.4562548688    5.4920463657
N        3.8228807284    0.3667638461    4.1580819810
N        0.2106801357   -2.5455733610    2.6928422547
O        3.3148876953   -3.0343033686    4.0394532949
O        1.4430155786   -3.8208936751    4.9587152082
H       -0.6519528302    0.0888719774    0.7605656843
H        1.3810504781    1.0671825592    1.8787692010
H       -1.3290886062   -2.2462514114    1.3529589716
H        0.0756777629   -3.9776233618    6.4469646973
H       -0.6405168657   -3.7776987978    4.8140163890
H        0.0818855704   -2.3784371936    5.6618922911
18   
torsion grid (-15,)
C        2.8955398220   -0.1997129166    3.7176672477
C       -0.0746029219   -0.4971690149    1.4991044245
C        1.0346845263    0.0474619940    2.1402168658
C       -0.4356879120   -1.8148885354    1.7947210720
C        1.7578978534   -0.7530112033    3.0383035726
C        1.3107249058   -2.0717690105    3.2662974374
C        2.1203724743   -3.0213925022    4.1263278877
C        0.1585478963   -3.3811144406    5.5134814714
N        3.7848115100    0.3167907639    4.2638647889
N        0.2304530340   -2.5819963566    2.6671648824
O        3.3032784581   -3.1724408367    3.9159711174
O        1.4907560329   -3.7308376863    5.0811448445
H       -0.6539995805    0.0850946053    0.7893827555
H        1.3487481387    1.0702052772    1.9558263023
H       -1.2977700628   -2.2746906419    1.3155808628
H        0.0478580673   -3.8406685083    6.4958719497
H       -0.5817108518   -3.7778901644    4.8176358161
H        0.0425641521   -2.2976167926    5.6046344391
18   
torsion grid (0,)
C        2.8083873384   -0.1471022674    3.7803906956
C        0.3188549263   -0.9660610450    1.1390019943
C        1.4752691870   -0.4850391214    1.7469006230
C       -0.6451220090   -1.5884881212    1.9372624787
C        1.6177817767   -0.6253535953    3.1362093695
C        0.5857176407   -1.2685485969    3.8513458064
C        0.6292875354   -1.3379285444    5.3650361689
C        0.4704459231   -3.7603734578    5.2037093965
N        3.8060359574    0.2266885822    4.2503705345
N       -0.5127840307   -1.7487237397    3.2605376817
O        0.7187276351   -0.3205115279    6.0150440462
O        0.5721041444   -2.5400645187    5.9678382343
H        0.1655968485   -0.8679795994    0.0688272650
H        2.2593491369   -0.0042980115    1.1700312654
H       -1.5610319726   -1.9789776320    1.4981771315
H        0.6779493176   -4.5585117799    5.9164069559
H        1.2114396283   -3.7885944398    4.3998607348
H       -0.5325833070   -3.8662848109    4.7888953296
18   
torsion grid (15,)
C        2.8107341663   -0.1231395203    3.7435481341
C        0.3071633745   -0.9590745097    1.1232505008
C        1.4637938644   -0.4698413467    1.7241852816
C       -0.6461211047   -1.5908288808    1.9271205809
C        1.6161568907   -0.6096863410    3.1125111908
C        0.5940267822   -1.2626214176    3.8337620453
C        0.6438846151   -1.3312841470    5.3469283039
C        0.4486052371   -3.7490631418    5.2088718546
N        3.8161753942    0.2567278154    4.1915355677
N       -0.5030667664   -1.7527969205    3.2487173933
O        0.8326438813   -0.3256979709    5.9947972831
O        0.4173873249   -2.5118241471    5.9517814563
H        0.1461739704   -0.8608792190    0.0541945444
H        2.2406953892    0.0167900674    1.1425913281
H       -1.5618178800   -1.9881070412    1.4937210954
H        0.6090430426   -4.5263191574    5.9563024050
H        1.2734139697   -3.7601256034    4.4909768785
H       -0.4984616209   -3.9034289575    4.6903991196
18   
torsion grid (30,)
C        2.8173425599   -0.0586188578    3.7374475116
C        0.3126870632   -0.9385418586    1.1363825384
C        1.4589776830   -0.4229604741    1.7346717538
C       -0.6146259474   -1.6087511227    1.9397209507
C        1.6279085286   -0.5754055162    3.1200096006
C        0.6309922419   -1.2670887377    3.8414993318
C        0.7007251240   -1.3581107611    5.3523138319
C        0.4020124734   -3.7622194964    5.2606383373
N        3.8245165486    0.3526632626    4.1525706925
N       -0.4552688091   -1.7823061605    3.2573887039
O        1.0244892862   -0.3931433265    6.0084741564
O        0.2863493951   -2.4952356833    5.9444821594
H        0.1401771816   -0.8317737648    0.0699021401
H        2.2163664208    0.0936264507    1.1532469874
H       -1.5216708362   -2.0278850166    1.5085976784
H        0.5178925252   -4.5063385464    6.0494709230
H        1.2811617422   -3.7837353741    4.6110536863
H       -0.4976323409   -3.9578411594    4.6756708215
18   
torsion grid (45,)
C        2.8246530195   -0.0012869502    3.7531589667
C        0.3174255447   -0.9063490808    1.1691613761
C        1.4467108259   -0.3596714696    1.7713758081
C       -0.5657287394   -1.6482804393    1.9595033450
C        1.6446418975   -0.5542009758    3.1480241157
C        0.6884758197   -1.3132673967    3.8585683302
C        0.7948453372   -1.4674172035    5.3620975581
C        0.3320933583   -3.8401529989    5.3218136482
N        3.8277910023    0.4541193427    4.1305670291
N       -0.3802183414   -1.8574798808    3.2676850485
O        1.2841902161   -0.5911581792    6.0400522404
O        0.1896191686   -2.5341909338    5.9236673683
H        0.1251626335   -0.7694092650    0.1094759952
H        2.1709347378    0.2123592539    1.1997117890
H       -1.4571085189   -2.0962062817    1.5245136918
H        0.4369722284   -4.5390937689    6.1531033940
H        1.2231837728   -3.8929290203    4.6908353795
H       -0.5532699301   -4.0742573124    4.7288653486
18   
torsion grid (60,)
C        2.7842900163   -0.0866150992    3.7424826315
C        0.2031279750   -0.9107903338    1.2073297412
C        1.3461612083   -0.3801102541    1.7966617701
C       -0.6519956744   -1.6884811294    1.9947559057
C        1.5872708327   -0.6262465277    3.1586896176
C        0.6554773783   -1.4160367580    3.8689132328
C        0.8183010190   -1.6388691159    5.3584728813
C        0.4160722751   -4.0071080172    5.4172302863
N        3.7979879728    0.3676569125    4.0922885895
N       -0.4278293877   -1.9437793916    3.2879808840
O        1.4137649909   -0.8388489873    6.0447205091
O        0.1408470941   -2.6773561002    5.9034864387
H       -0.0209448370   -0.7352742468    0.1596061846
H        2.0497262385    0.2186115875    1.2265600965
H       -1.5524074473   -2.1272869088    1.5690309349
H       -0.2575361938   -4.6642985841    5.9669663241
H        1.4533220982   -4.2747019355    5.6420179419
H        0.2170371829   -4.0916548929    4.3465374161
18   
torsion grid (75,)
C        2.7562955383    0.0537896371    3.7071025360
C        0.1967402946   -0.8766560470    1.1927913111
C        1.3040868332   -0.2816137618    1.7870803409
C       -0.5821332785   -1.7490586417    1.9607251418
C        1.5942878240   -0.5669411577    3.1327042599
C        0.7350475804   -1.4498069917    3.8262009951
C        0.9670928947   -1.7565961115    5.2898887608
C        0.2944850139   -4.0407656177    5.5249614454
N        3.7305512759    0.6070698498    4.0258655875
N       -0.3197056399   -2.0294702704    3.2400414655
O        1.7905785404   -1.1539954956    5.9408048540
O        0.1120849380   -2.6490571972    5.8531363317
H       -0.0592829959   -0.6765527385    0.1568235236
H        1.9461278643    0.3962714079    1.2332765755
H       -1.4518231784   -2.2416165907    1.5297256783
H       -0.5145516466   -4.5715782357    6.0267200860
H        1.2586999697   -4.3882689545    5.9102249295
H        0.2254885911   -4.2043904390    4.4461982531
18   
torsion grid (90,)
C        2.6950766143    0.2081944291    3.7135462941
C        0.2130975438   -0.8162013377    1.1571372330
C        1.2678254504   -0.1555015393    1.7774808733
C       -0.4806994483   -1.7913700980    1.8821902532
C        1.6010361818   -0.4932928713    3.1005725059
C        0.8272511294   -1.4815279045    3.7504183099
C        1.1359966508   -1.8967727508    5.1697405745
C        0.1603597621   -4.0158552124    5.6598491524
N        3.5867686929    0.8574636900    4.0877312754
N       -0.1889572590   -2.1096028597    3.1462764704
O        2.1759234397   -1.6009632002    5.7134160091
O        0.1399123733   -2.5802107206    5.7960745412
H       -0.0705293854   -0.5841332549    0.1351235239
H        1.8365464128    0.6112192727    1.2605571786
H       -1.3078968952   -2.3346327644    1.4291094506
H       -0.6579157847   -4.3843949779    6.2786055456
H        1.1106415764   -4.4159874910    6.0285969462
H       -0.0048180359   -4.3003938684    4.6168690510
18   
torsion grid (105,)
C        2.6508267916    0.2478623056    3.7355546803
C        0.2242309964   -0.7410837224    1.1070367441
C        1.2522704954   -0.0702756747    1.7617860583
C       -0.4402958209   -1.7685278386    1.7855756059
C        1.5905351449   -0.4563212311    3.0694678054
C        0.8462272029   -1.4954194734    3.6705878876
C        1.1847739878   -1.9980782418    5.0529880748
C        0.1435588363   -4.0007485117    5.7943633837
N        3.5062405265    0.8959458115    4.1877771349
N       -0.1486524662   -2.1291320185    3.0393369986
O        2.3048065102   -1.9258437106    5.5076397229
O        0.1348401276   -2.5607915708    5.7055568367
H       -0.0624623085   -0.4756256566    0.0940482428
H        1.7949094477    0.7385485242    1.2823091915
H       -1.2452349934   -2.3200933247    1.3034501427
H       -0.6626079433   -4.2650713447    6.4787388305
H        1.0995042110   -4.3548026950    6.1920649365
H       -0.0500574357   -4.4273932311    4.8055716784
18   
torsion grid (120,)
C        2.6117024161    0.2184982131    3.7466697797
C        0.2131726833   -0.6724429520    1.0560357263
C        1.2359361600   -0.0261600765    1.7435588126
C       -0.4599321437   -1.7207396915    1.6924024487
C        1.5602731342   -0.4585000242    3.0396602226
C        0.8102526049   -1.5182191859    3.5957181896
C        1.1536307717   -2.0839004692    4.9523846729
C        0.1828973918   -4.0191662585    5.9271334693
N        3.4584507009    0.8436777991    4.2450191715
N       -0.1804837645   -2.1268128909    2.9357832940
O        2.2937587350   -2.1155404815    5.3645026062
O        0.0888916045   -2.6179349713    5.5932379522
H       -0.0630514071   -0.3718744053    0.0499589164
H        1.7840146686    0.7982033024    1.2979397649
H       -1.2618797889   -2.2529637474    1.1842552224
H       -0.6345372654   -4.2210449439    6.6191351532
H        1.1413856239   -4.2417399187    6.4027882391
H        0.0550904593   -4.6088507220    5.0144397854
18   
torsion grid (135,)
C        2.5923362515    0.1495913795    3.7624342045
C        0.1924122172   -0.5885138678    1.0274727160
C        1.2260270561    0.0080149644    1.7433961612
C       -0.5075586543   -1.6436343685    1.6215057812
C        1.5338071453   -0.4804983370    3.0231736484
C        0.7603985959   -1.5466453057    3.5338727802
C        1.0992989543   -2.1702590148    4.8662929158
C        0.2175394357   -4.0158340665    6.0574656436
N        3.4424821730    0.7433262778    4.2924840803
N       -0.2413166457   -2.1056520021    2.8484879076
O        2.2444103907   -2.2587982734    5.2612142197
O        0.0269821619   -2.7040568002    5.4824877656
H       -0.0715724325   -0.2443252421    0.0321325348
H        1.7941495242    0.8366641983    1.3321849344
H       -1.3205827504   -2.1364818249    1.0916703892
H       -0.7138584117   -4.2497824216    6.5719689799
H        1.0541354409   -4.0194179434    6.7593568429
H        0.3938974285   -4.7346903123    5.2524669273
18   
torsion grid (150,)
C        2.6366709108    0.0230015836    3.7456333300
C        0.1916327268   -0.5258556363    1.0091467808
C        1.2531355842    0.0006479214    1.7382463399
C       -0.5461854402   -1.5734639196    1.5700779322
C        1.5499891065   -0.5462919306    2.9973331300
C        0.7408121432   -1.6027624445    3.4726365470
C        1.0641167136   -2.2699550172    4.7869645923
C        0.2980073547   -4.0351607435    6.1465550193
N        3.5118551305    0.5805102326    4.2744414794
N       -0.2868346549   -2.0945284814    2.7739414479
O        2.1965900690   -2.3223011770    5.2272422074
O        0.0002810254   -2.8766049036    5.3358388636
H       -0.0650376194   -0.1341331544    0.0295704837
H        1.8517479413    0.8207043986    1.3540181416
H       -1.3838904676   -2.0115073976    1.0305116953
H       -0.6696500195   -4.4727529050    6.3892941557
H        0.8307717785   -3.7484778594    7.0560037963
H        0.9060014676   -4.7387457681    5.5727763446
18   
torsion grid (165,)
C        2.6741382548   -0.0742802586    3.6958877908
C        0.1798493814   -0.4740458854    0.9832621328
C        1.2632979672   -0.0031704047    1.7167079569
C       -0.5819052297   -1.5185068183    1.5185735536
C        1.5571046264   -0.5959003703    2.9567718183
C        0.7246528330   -1.6463733725    3.4052991557
C        1.0270004331   -2.3365270462    4.7115589354
C        0.3561376058   -4.0438979614    6.1787975042
N        3.5854356533    0.4575246481    4.1894065823
N       -0.3213192373   -2.0873058353    2.6989218373
O        2.1013736957   -2.2363766998    5.2742932885
O        0.0143449381   -3.1060052070    5.1351021708
H       -0.0748199958   -0.0435375461    0.0195499350
H        1.8832236470    0.8097285826    1.3515839651
H       -1.4387243836   -1.9136368274    0.9757684507
H       -0.5466027454   -4.6308048251    6.3439115115
H        0.6478127780   -3.5169923099    7.0901178081
H        1.1800488549   -4.6822119627    5.8511638990
18   
torsion grid (180,)
C        2.7109812466   -0.1879620487    3.5707442905
C        0.0734273665   -0.5058961236    0.9884413781
C        1.1958367965   -0.0608961915    1.6771849799
C       -0.6690259913   -1.5578729785    1.5369012491
C        1.5426295585   -0.6786400914    2.8918533986
C        0.7244658984   -1.7328188520    3.3573621100
C        1.0587428334   -2.4222671950    4.6556642295
C        0.4742018089   -4.0977449961    6.1901967247
N        3.6716681629    0.3173181896    3.9937180586
N       -0.3536945278   -2.1553741402    2.6884321426
O        2.0115607364   -2.1071234896    5.3445015985
O        0.1975495480   -3.4047041222    4.9540018884
H       -0.2243007163   -0.0521870245    0.0479878181
H        1.8076597011    0.7512418813    1.2970499345
H       -1.5542668219   -1.9351877030    1.0279965100
H       -0.3072574270   -4.8516939975    6.2770218078
H        0.4380347348   -3.4017977418    7.0314545471
H        1.4614314770   -4.5637859122    6.1510519544
