29   
torsion grid (-60,)
C        2.3063064435    2.6201264693   -0.6874130683
C        2.3707940485    4.0304538912   -0.5849441184
C        0.0591980667    2.8697995057   -1.2578942841
C        1.0167363301    2.0672975309   -0.5908175891
C       -0.0811158241    4.1907767074   -0.7943687537
C        1.1803195513    4.7695062497   -0.4840070316
C       -0.1559502022   -1.5801250550   -0.7859633355
C        0.1354103735   -0.2346602662   -1.4781873277
C       -0.4040643459   -1.2284432473    0.7085450305
C        0.8159076064    0.5911040811   -0.3698688837
C       -0.0609026460    0.2640705266    0.8723449581
C       -1.3462785174    4.9902667086   -0.9335742914
O       -1.2975186168    0.9896463307    0.8638127696
Cl       1.2752884196    6.4718837552   -0.0389606347
H        3.2016794981    2.0173388650   -0.5553863343
H        3.3245911294    4.5425257982   -0.5052652152
H       -0.8528256295    2.3752996643   -1.5954572373
H       -1.0043231139   -2.1016719203   -1.2375276535
H        0.7128662678   -2.2406992501   -0.8792645625
H        0.7648940881   -0.3295946150   -2.3677839654
H       -0.8023192797    0.2410444822   -1.7782524965
H       -1.4449142605   -1.3779176033    1.0049125589
H        0.2153423015   -1.8413132742    1.3697806136
H        1.7998411484    0.1434162737   -0.1710873630
H        0.4813345389    0.4704847378    1.8041925741
H       -1.6513843103    5.3918301257    0.0389314883
H       -1.2170240807    5.8468440807   -1.6033541172
H       -2.1578053712    4.3635073575   -1.3116520837
H       -1.0871084632    1.9377920906    0.8901965272
29   
torsion grid (-45,)
C        2.2611000525    2.6423320576   -0.5639491194
C        2.3480486025    4.0427026055   -0.5019583784
C       -0.0120171427    2.8624531490   -1.1682219901
C        0.9836834801    2.0557779212   -0.5799542914
C       -0.0760667754    4.2260270881   -0.8294454972
C        1.1725508071    4.8033274587   -0.5131638962
C       -0.1521379683   -1.5980404837   -0.8311432609
C        0.0896706836   -0.2280296449   -1.4928772466
C       -0.3451336820   -1.2941957123    0.6817829099
C        0.8113629710    0.5707374468   -0.3919407784
C       -0.0020761407    0.1945409561    0.8792050206
C       -1.3259105445    5.0428184647   -1.0224601403
O       -1.2411250837    0.9116196247    0.9565382872
Cl       1.2802352404    6.5306036381   -0.1832526846
H        3.1495440243    2.0371280068   -0.3995448751
H        3.3074553745    4.5377624948   -0.3887082029
H       -0.9396397052    2.3865751041   -1.4816488349
H       -1.0088983368   -2.1217688331   -1.2639738044
H        0.7234991706   -2.2396528272   -0.9783981148
H        0.6763338773   -0.2872719427   -2.4143181325
H       -0.8671939236    0.2439713792   -1.7329594822
H       -1.3739657725   -1.4573289322    1.0110972729
H        0.2998479563   -1.9250394487    1.3002995535
H        1.8076736033    0.1284804371   -0.2537770924
H        0.5844877624    0.3737114933    1.7897374061
H       -1.6226870988    5.5203157264   -0.0824160852
H       -1.1773219656    5.8455142136   -1.7521890728
H       -2.1516701982    4.4107129264   -1.3580859619
H       -1.0340124925    1.8602269122    0.9955422261
29   
torsion grid (-30,)
C        2.2276134612    2.6545979639   -0.4431006945
C        2.3259497172    4.0506097460   -0.4105928556
C       -0.0651591063    2.8647451334   -1.0759668796
C        0.9658291834    2.0541146864   -0.5693946290
C       -0.0729120990    4.2523468768   -0.8625710493
C        1.1700585547    4.8258592566   -0.5375027504
C       -0.1658131377   -1.5991456504   -0.8553052411
C        0.0428191439   -0.2121798713   -1.4929265949
C       -0.2862855034   -1.3348180851    0.6726733740
C        0.8099470421    0.5628859969   -0.4066808506
C        0.0593552865    0.1502031137    0.8911448360
C       -1.3029377536    5.0835830898   -1.1183146860
O       -1.1772984271    0.8583680234    1.0458076247
Cl       1.2994857079    6.5703814380   -0.3235835326
H        3.1082103091    2.0510489023   -0.2368472042
H        3.2835302179    4.5363692924   -0.2505924481
H       -1.0019356201    2.4014376255   -1.3745152952
H       -1.0425624001   -2.1127086004   -1.2593251808
H        0.7014781848   -2.2359203736   -1.0611234407
H        0.5876283379   -0.2474835742   -2.4409463472
H       -0.9251827625    0.2614129059   -1.6794523691
H       -1.2970096617   -1.5128547949    1.0472250812
H        0.3911800720   -1.9770821341    1.2428670846
H        1.8137097888    0.1236892780   -0.3272182700
H        0.6885313629    0.3097187697    1.7767056464
H       -1.5940738326    5.6342681710   -0.2175125766
H       -1.1296631858    5.8277830871   -1.9024892657
H       -2.1417437048    4.4502435157   -1.4171249754
H       -0.9719779004    1.8066031116    1.1012959883
29   
torsion grid (-15,)
C        2.1844589477    2.6632428247   -0.3391439501
C        2.3031031220    4.0546399427   -0.3427059072
C       -0.1237535165    2.8713718428   -0.9624751040
C        0.9390070809    2.0529396247   -0.5460083961
C       -0.0727367282    4.2710800552   -0.8793194323
C        1.1723431340    4.8406564477   -0.5686154592
C       -0.1772723219   -1.5966439759   -0.9070634991
C        0.0002101624   -0.1880404242   -1.5044940778
C       -0.2614454426   -1.3818109121    0.6310027273
C        0.7940406161    0.5567782461   -0.4166736436
C        0.0874449980    0.0963898952    0.8896159817
C       -1.2849711218    5.1133200898   -1.1854677783
O       -1.1445919298    0.7938823682    1.1130636107
Cl       1.3363693254    6.5931560914   -0.4820939412
H        3.0568937813    2.0554404551   -0.1109356599
H        3.2606775791    4.5300500130   -0.1541050640
H       -1.0726543995    2.4149474897   -1.2286645604
H       -1.0580254920   -2.1080688692   -1.3050544133
H        0.6919260480   -2.2158043691   -1.1546491478
H        0.5149767755   -0.1872470045   -2.4698211358
H       -0.9767712194    0.2832603394   -1.6451489261
H       -1.2629921932   -1.5735178852    1.0230434725
H        0.4295246869   -2.0413387968    1.1640701046
H        1.8019626157    0.1213924480   -0.3821495486
H        0.7464726532    0.2269837040    1.7581434888
H       -1.5540499845    5.7401331979   -0.3287784932
H       -1.0990003566    5.7891752732   -2.0266065479
H       -2.1422056010    4.4818991517   -1.4310304717
H       -0.9386158243    1.7395129682    1.2017416613
29   
torsion grid (0,)
C        2.1456943342    2.6685947445   -0.2202578948
C        2.2756920286    4.0572470171   -0.2492679669
C       -0.1602352451    2.8748672828   -0.8663705451
C        0.9248685019    2.0507984621   -0.5281918451
C       -0.0677935713    4.2743387356   -0.9065698907
C        1.1743666546    4.8432301669   -0.5887488182
C       -0.1956959434   -1.5924502883   -0.9354822850
C       -0.0520238913   -0.1667416763   -1.5006334678
C       -0.2063662599   -1.4215146354    0.6103419812
C        0.7915005978    0.5504335219   -0.4324948533
C        0.1521911852    0.0497643149    0.8936056114
C       -1.2608578301    5.1177381527   -1.2795768144
O       -1.0681641711    0.7367394312    1.1975573448
Cl       1.3698228526    6.5942377181   -0.6198287646
H        3.0079057352    2.0600827641    0.0430565551
H        3.2238289910    4.5303843570   -0.0132513391
H       -1.1146839632    2.4214465412   -1.1163530734
H       -1.0929061502   -2.0965693442   -1.3049904219
H        0.6625700626   -2.2003824287   -1.2420186904
H        0.4142460882   -0.1372469052   -2.4898842620
H       -1.0364169003    0.3034079247   -1.5801638793
H       -1.1877120968   -1.6272935745    1.0441153729
H        0.5103762473   -2.0938142263    1.0908608104
H        1.8018508271    0.1202502194   -0.4616161196
H        0.8537681459    0.1583047995    1.7314038650
H       -1.5196634739    5.8155951436   -0.4764689250
H       -1.0552947807    5.7211813686   -2.1699014146
H       -2.1305616147    4.4885335350   -1.4832000166
H       -0.8599567833    1.6804249513    1.3015442817
29   
torsion grid (15,)
C        2.0732686725    2.6799800931   -0.1174629662
C        2.2143528792    4.0669098780   -0.1880966642
C       -0.2316663721    2.8937476853   -0.7525700604
C        0.8728412121    2.0639504203   -0.5025306326
C       -0.1052779367    4.2798689245   -0.9329341735
C        1.1432108290    4.8451011329   -0.6307329578
C       -0.2474232599   -1.5722105804   -0.9542079511
C       -0.1392826772   -0.1308331062   -1.4848268262
C       -0.2116118932   -1.4404488378    0.5947474105
C        0.7447497403    0.5611915217   -0.4333770983
C        0.1641433082    0.0217940491    0.9048293364
C       -1.2809364555    5.1185480589   -1.3648786131
O       -1.0382442715    0.7009615074    1.2867364019
Cl       1.3814168496    6.5831231154   -0.7977770839
H        2.9274135746    2.0725031860    0.1730862396
H        3.1537108570    4.5432623711    0.0750892817
H       -1.1951668538    2.4420908514   -0.9702087064
H       -1.1483989821   -2.0801379011   -1.3091128507
H        0.6097592903   -2.1589554338   -1.3025967538
H        0.2821810533   -0.0696135994   -2.4925878024
H       -1.1295530745    0.3334820325   -1.5071038493
H       -1.1820359638   -1.6500844846    1.0507144125
H        0.5128846869   -2.1299745749    1.0377009464
H        1.7544423246    0.1362139311   -0.5165685714
H        0.9042266013    0.1042697302    1.7119838126
H       -1.5124161918    5.8933307153   -0.6267511757
H       -1.0686199498    5.6325135399   -2.3083411120
H       -2.1683045352    4.4968494674   -1.5056930367
H       -0.8223366500    1.6408580360    1.4088563339
29   
torsion grid (30,)
C        2.0335264122    2.6791851448    0.0103469617
C        2.1816449809    4.0656684579   -0.1009450586
C       -0.2580302052    2.9051198818   -0.6254913042
C        0.8596500263    2.0694717737   -0.4623021139
C       -0.1098208353    4.2649996419   -0.9443102100
C        1.1440609967    4.8273640240   -0.6474477416
C       -0.2702271300   -1.5552593228   -0.9688219285
C       -0.1842988568   -0.0998808458   -1.4628968171
C       -0.1927794808   -1.4639190126    0.5811350666
C        0.7346351815    0.5649529672   -0.4243015877
C        0.2048296140   -0.0132610401    0.9195365872
C       -1.2689448881    5.0912449572   -1.4362958705
O       -0.9753600501    0.6601418802    1.3729627420
Cl       1.4259264772    6.5423651117   -0.9390596158
H        2.8797733835    2.0747312819    0.3288088744
H        3.1071871859    4.5512288617    0.1926449933
H       -1.2283431948    2.4530827316   -0.8145502434
H       -1.1775843346   -2.0596243895   -1.3124552132
H        0.5806891528   -2.1267815913   -1.3559140518
H        0.2007355526   -0.0099623749   -2.4830552998
H       -1.1756394723    0.3622410573   -1.4373305512
H       -1.1538374836   -1.6752921407    1.0558091925
H        0.5348263996   -2.1721576661    0.9879124031
H        1.7421813297    0.1468295024   -0.5561453419
H        0.9786569760    0.0407070919    1.6969410282
H       -1.4785279069    5.9315129497   -0.7665185413
H       -1.0493527106    5.5172791764   -2.4211299800
H       -2.1701277711    4.4794868944   -1.5228172730
H       -0.7465730730    1.5936062746    1.5192640406
29   
torsion grid (45,)
C        1.9990695995    2.6956409466    0.1219261549
C        2.1565094251    4.0821647741   -0.0227641505
C       -0.2651883721    2.9362076181   -0.5142003831
C        0.8605190610    2.0924422326   -0.4466664004
C       -0.1002154973    4.2578737889   -0.9690874520
C        1.1576167038    4.8208362326   -0.6714630309
C       -0.3013429289   -1.5135866261   -1.0113036725
C       -0.2271754078   -0.0444157732   -1.4651840177
C       -0.1562233933   -1.4706594243    0.5358684337
C        0.7332620989    0.5876839459   -0.4442054740
C        0.2601852974   -0.0324337919    0.9031489640
C       -1.2443972120    5.0640571404   -1.5217047786
O       -0.8954070360    0.6277279737    1.4310283946
Cl       1.4838413465    6.5041039027   -1.0769315452
H        2.8319889122    2.0911318907    0.4744909794
H        3.0645800816    4.5785678131    0.3050606098
H       -1.2380679681    2.4764908811   -0.6799227171
H       -1.2270295914   -2.0009652386   -1.3296075352
H        0.5268329098   -2.0789576381   -1.4527342194
H        0.1194571043    0.0731075166   -2.4962952121
H       -1.2145914468    0.4206074514   -1.3898047230
H       -1.0960015647   -1.6963440667    1.0452617502
H        0.5869588464   -2.1918813270    0.8879874170
H        1.7352611919    0.1759733741   -0.6299725656
H        1.0686998913   -0.0053969925    1.6458695574
H       -1.4393891632    5.9585515346   -0.9212279799
H       -1.0154552632    5.4064850662   -2.5367003753
H       -2.1553306130    4.4621264283   -1.5639682558
H       -0.6534757279    1.5524271587    1.6088155530
29   
torsion grid (60,)
C        1.9788021981    2.6923016521    0.2455287626
C        2.1373909611    4.0815277269    0.0379108611
C       -0.2535767414    2.9586281964   -0.3818533322
C        0.8757294213    2.1076465814   -0.4094177989
C       -0.0988063131    4.2179302924   -0.9922141452
C        1.1719917146    4.7831607023   -0.7064837099
C       -0.3206795167   -1.4734222154   -1.0516488871
C       -0.2542982860    0.0094625675   -1.4588953476
C       -0.1396654389   -1.4806150893    0.4919254828
C        0.7371154789    0.6043537752   -0.4452951019
C        0.3032111116   -0.0596464074    0.8955934520
C       -1.2357567041    4.9949428460   -1.5919519026
O       -0.8252431836    0.5905864997    1.4890553067
Cl       1.5424172619    6.4224568638   -1.2366368121
H        2.8067630040    2.0958849166    0.6225462731
H        3.0302079392    4.5994207814    0.3742533758
H       -1.2279244542    2.4827733279   -0.5034224706
H       -1.2541926553   -1.9496673391   -1.3639375064
H        0.4963630243   -2.0246395931   -1.5302277305
H        0.0628943751    0.1596447234   -2.4952597576
H       -1.2371672119    0.4752575526   -1.3400444926
H       -1.0708422319   -1.7101543989    1.0152283451
H        0.6013483851   -2.2219060434    0.8046204861
H        1.7322740846    0.1962272201   -0.6728789468
H        1.1380992033   -0.0664414630    1.6088928168
H       -1.4035489209    5.9432511658   -1.0710523951
H       -1.0158410505    5.2404467110   -2.6367400720
H       -2.1572215033    4.4079967028   -1.5687140302
H       -0.5626792496    1.5011846338    1.7062829294
