
  -OEChem-12122420533D

 44 47  0     1  0  0  0  0  0999 V2000
    0.0290    1.8727   -4.8589 N   0  0  0  0  0  0  0  0  0  0  0  0
   -0.0143    3.4059   -5.0721 S   0  0  1  0  0  0  0  0  0  0  0  0
    0.8589    3.9000   -6.1523 O   0  0  0  0  0  0  0  0  0  0  0  0
   -1.6987    4.0286   -5.3914 C   0  0  0  0  0  0  0  0  0  0  0  0
   -1.6658    5.1108   -5.5323 H   0  0  0  0  0  0  0  0  0  0  0  0
   -2.0234    3.5344   -6.3089 H   0  0  0  0  0  0  0  0  0  0  0  0
   -2.3560    3.7583   -4.5615 H   0  0  0  0  0  0  0  0  0  0  0  0
    0.4132    4.3450   -3.5496 C   0  0  0  0  0  0  0  0  0  0  0  0
    1.8594    4.0484   -3.1579 C   0  0  0  0  0  0  0  0  0  0  0  0
    2.2173    4.7830   -1.8743 C   0  0  0  0  0  0  0  0  0  0  0  0
    3.5844    4.4438   -1.5628 O   0  0  0  0  0  0  0  0  0  0  0  0
    4.1068    4.9934   -0.4449 C   0  0  0  0  0  0  0  0  0  0  0  0
    3.3529    5.7845    0.2802 N   0  0  0  0  0  0  0  0  0  0  0  0
    3.9620    6.2908    1.3817 N   0  0  0  0  0  0  0  0  0  0  0  0
    5.2662    6.0151    1.8009 C   0  0  0  0  0  0  0  0  0  0  0  0
    5.5413    6.6435    2.9504 N   0  0  0  0  0  0  0  0  0  0  0  0
    4.4101    7.3236    3.2658 C   0  0  0  0  0  0  0  0  0  0  0  0
    4.3501    7.9493    4.1479 H   0  0  0  0  0  0  0  0  0  0  0  0
    3.3978    7.1335    2.3170 C   0  0  0  0  0  0  0  0  0  0  0  0
    2.0519    7.6510    2.2820 C   0  0  0  0  0  0  0  0  0  0  0  0
    1.2129    8.0136    3.3025 C   0  0  0  0  0  0  0  0  0  0  0  0
    1.4192    7.9002    4.3586 H   0  0  0  0  0  0  0  0  0  0  0  0
    0.0160    8.5288    2.6875 C   0  0  0  0  0  0  0  0  0  0  0  0
   -1.2074    9.0488    3.1468 C   0  0  0  0  0  0  0  0  0  0  0  0
   -1.4102    9.1420    4.2103 H   0  0  0  0  0  0  0  0  0  0  0  0
   -2.1552    9.4451    2.2034 C   0  0  0  0  0  0  0  0  0  0  0  0
   -3.1058    9.8521    2.5372 H   0  0  0  0  0  0  0  0  0  0  0  0
   -1.9059    9.3319    0.8196 C   0  0  0  0  0  0  0  0  0  0  0  0
   -2.6646    9.6558    0.1125 H   0  0  0  0  0  0  0  0  0  0  0  0
   -0.6983    8.8143    0.3406 C   0  0  0  0  0  0  0  0  0  0  0  0
   -0.4897    8.7252   -0.7213 H   0  0  0  0  0  0  0  0  0  0  0  0
    0.2325    8.4257    1.2972 C   0  0  0  0  0  0  0  0  0  0  0  0
    1.4732    7.8946    1.0465 O   0  0  0  0  0  0  0  0  0  0  0  0
    6.0395    5.1593    0.9840 C   0  0  0  0  0  0  0  0  0  0  0  0
    7.0588    4.9322    1.2779 H   0  0  0  0  0  0  0  0  0  0  0  0
    5.4659    4.6451   -0.1490 C   0  0  0  0  0  0  0  0  0  0  0  0
    5.9936    3.9832   -0.8262 H   0  0  0  0  0  0  0  0  0  0  0  0
    1.5753    4.4836   -1.0389 H   0  0  0  0  0  0  0  0  0  0  0  0
    2.1340    5.8694   -1.9837 H   0  0  0  0  0  0  0  0  0  0  0  0
    2.5293    4.3625   -3.9629 H   0  0  0  0  0  0  0  0  0  0  0  0
    1.9946    2.9723   -3.0157 H   0  0  0  0  0  0  0  0  0  0  0  0
    0.2612    5.4051   -3.7756 H   0  0  0  0  0  0  0  0  0  0  0  0
   -0.2948    4.0366   -2.7722 H   0  0  0  0  0  0  0  0  0  0  0  0
   -0.6173    1.5739   -4.1253 H   0  0  0  0  0  0  0  0  0  0  0  0
  1  2  2  0  0  0  0
  1 44  1  0  0  0  0
  2  3  2  0  0  0  0
  2  4  1  0  0  0  0
  2  8  1  0  0  0  0
  4  5  1  0  0  0  0
  4  6  1  0  0  0  0
  4  7  1  0  0  0  0
  8  9  1  0  0  0  0
  8 42  1  0  0  0  0
  8 43  1  0  0  0  0
  9 10  1  0  0  0  0
  9 40  1  0  0  0  0
  9 41  1  0  0  0  0
 10 11  1  0  0  0  0
 10 38  1  0  0  0  0
 10 39  1  0  0  0  0
 11 12  1  0  0  0  0
 12 13  2  0  0  0  0
 12 36  1  0  0  0  0
 13 14  1  0  0  0  0
 14 15  1  0  0  0  0
 14 19  1  0  0  0  0
 15 16  2  0  0  0  0
 15 34  1  0  0  0  0
 16 17  1  0  0  0  0
 17 18  1  0  0  0  0
 17 19  2  0  0  0  0
 19 20  1  0  0  0  0
 20 21  2  0  0  0  0
 20 33  1  0  0  0  0
 21 22  1  0  0  0  0
 21 23  1  0  0  0  0
 23 24  1  0  0  0  0
 23 32  2  0  0  0  0
 24 25  1  0  0  0  0
 24 26  2  0  0  0  0
 26 27  1  0  0  0  0
 26 28  1  0  0  0  0
 28 29  1  0  0  0  0
 28 30  2  0  0  0  0
 30 31  1  0  0  0  0
 30 32  1  0  0  0  0
 32 33  1  0  0  0  0
 34 35  1  0  0  0  0
 34 36  2  0  0  0  0
 36 37  1  0  0  0  0
M  END
$$$$
