
  -OEChem-12102412493D

 18 18  0     0  0  0  0  0  0999 V2000
   -1.4373   -1.8516    1.1260 N   0  0  0  0  0  0  0  0  0  0  0  0
   -1.2735   -1.0052   -0.3087 S   0  0  0  0  0  0  0  0  0  0  0  0
   -2.5324   -0.3223   -0.5442 O   0  0  0  0  0  0  0  0  0  0  0  0
    0.0288   -0.3652   -0.2466 O   0  0  0  0  0  0  0  0  0  0  0  0
   -1.1626   -2.1317   -1.6097 N   0  0  0  0  0  0  0  0  0  0  0  0
   -0.1848   -3.1285   -1.5532 C   0  0  0  0  0  0  0  0  0  0  0  0
   -0.4800   -4.3978   -1.5919 N   0  0  0  0  0  0  0  0  0  0  0  0
    0.6352   -5.2012   -1.6354 N   0  0  0  0  0  0  0  0  0  0  0  0
    1.7487   -4.5164   -1.6037 C   0  0  0  0  0  0  0  0  0  0  0  0
    3.3569   -5.2155   -1.5913 S   0  0  0  0  0  0  0  0  0  0  0  0
    2.9085   -6.9861   -1.6275 C   0  0  0  0  0  0  0  0  0  0  0  0
    3.8573   -7.5265   -1.6286 H   0  0  0  0  0  0  0  0  0  0  0  0
    2.3416   -7.2153   -2.5301 H   0  0  0  0  0  0  0  0  0  0  0  0
    2.3234   -7.2495   -0.7461 H   0  0  0  0  0  0  0  0  0  0  0  0
    1.5331   -2.7691   -1.5439 S   0  0  0  0  0  0  0  0  0  0  0  0
   -2.0799   -2.5150   -1.8398 H   0  0  0  0  0  0  0  0  0  0  0  0
   -2.2910   -2.4052    1.1661 H   0  0  0  0  0  0  0  0  0  0  0  0
   -0.6047   -2.3870    1.3654 H   0  0  0  0  0  0  0  0  0  0  0  0
  1  2  1  0  0  0  0
  1 17  1  0  0  0  0
  1 18  1  0  0  0  0
  2  3  2  0  0  0  0
  2  4  2  0  0  0  0
  2  5  1  0  0  0  0
  5  6  1  0  0  0  0
  5 16  1  0  0  0  0
  6  7  2  0  0  0  0
  6 15  1  0  0  0  0
  7  8  1  0  0  0  0
  8  9  2  0  0  0  0
  9 10  1  0  0  0  0
  9 15  1  0  0  0  0
 10 11  1  0  0  0  0
 11 12  1  0  0  0  0
 11 13  1  0  0  0  0
 11 14  1  0  0  0  0
M  END
$$$$
