18
0 1 C3H8O5S2
C                    -1.578728901405    -0.675044077983    -2.587742305153
O                    -1.624934586358    -0.259475869754    -1.194470156067
S                    -0.357960955763    -0.675931767462    -0.245882227980
O                    -0.862628440195    -0.607043155379     1.116878229902
O                     0.283274551158    -1.863230222923    -0.787723109686
C                     0.704854879263     0.778063302503    -0.513144495880
S                     2.088261487650     0.984141270497     0.688057619823
O                     2.753814883487    -0.309524085062     0.848680233815
O                     2.809499508144     2.162281435893     0.187908139289
C                     1.271424481904     1.421594544209     2.233934046383
H                     2.081995606134     1.567890161482     2.950751611506
H                     0.718390465005     2.350628099045     2.090015662478
H                     0.619037549537     0.603063573418     2.535121944636
H                     1.191887485524     0.689590265195    -1.486392447117
H                     0.074254389623     1.667565568125    -0.472721156767
H                    -2.571884922649    -0.447860808293    -2.973727766312
H                    -1.371705431321    -1.743113790736    -2.659007563216
H                    -0.824094792902    -0.102140054794    -3.134510514620
