
  -OEChem-12122420533D

 18 17  0     0  0  0  0  0  0999 V2000
   -2.6199   -1.8633   -1.3541 C   0  0  0  0  0  0  0  0  0  0  0  0
   -1.7913   -0.7513   -0.9070 O   0  0  0  0  0  0  0  0  0  0  0  0
   -0.3312   -1.1877   -0.2991 S   0  0  0  0  0  0  0  0  0  0  0  0
   -0.5282   -2.1582    0.7666 O   0  0  0  0  0  0  0  0  0  0  0  0
    0.5780   -1.4736   -1.4073 O   0  0  0  0  0  0  0  0  0  0  0  0
    0.0479    0.4587    0.3651 C   0  0  0  0  0  0  0  0  0  0  0  0
    1.8169    0.7334    0.7930 S   0  0  0  0  0  0  0  0  0  0  0  0
    1.8263    2.0736    1.3933 O   0  0  0  0  0  0  0  0  0  0  0  0
    2.2965   -0.4389    1.5272 O   0  0  0  0  0  0  0  0  0  0  0  0
    2.6525    0.8128   -0.8022 C   0  0  0  0  0  0  0  0  0  0  0  0
    3.7023    0.9955   -0.5640 H   0  0  0  0  0  0  0  0  0  0  0  0
    2.5231   -0.1380   -1.3178 H   0  0  0  0  0  0  0  0  0  0  0  0
    2.2423    1.6468   -1.3733 H   0  0  0  0  0  0  0  0  0  0  0  0
   -0.2589    1.2018   -0.3721 H   0  0  0  0  0  0  0  0  0  0  0  0
   -0.5022    0.5881    1.2989 H   0  0  0  0  0  0  0  0  0  0  0  0
   -3.5480   -1.3988   -1.6837 H   0  0  0  0  0  0  0  0  0  0  0  0
   -2.8066   -2.5480   -0.5244 H   0  0  0  0  0  0  0  0  0  0  0  0
   -2.1367   -2.3796   -2.1869 H   0  0  0  0  0  0  0  0  0  0  0  0
  1  2  1  0  0  0  0
  1 16  1  0  0  0  0
  1 17  1  0  0  0  0
  1 18  1  0  0  0  0
  2  3  1  0  0  0  0
  3  4  2  0  0  0  0
  3  5  2  0  0  0  0
  3  6  1  0  0  0  0
  6  7  1  0  0  0  0
  6 14  1  0  0  0  0
  6 15  1  0  0  0  0
  7  8  2  0  0  0  0
  7  9  2  0  0  0  0
  7 10  1  0  0  0  0
 10 11  1  0  0  0  0
 10 12  1  0  0  0  0
 10 13  1  0  0  0  0
M  END
$$$$
