
  -OEChem-12102412493D

 18 17  0     0  0  0  0  0  0999 V2000
   -1.5787   -0.6750   -2.5877 C   0  0  0  0  0  0  0  0  0  0  0  0
   -1.6249   -0.2595   -1.1945 O   0  0  0  0  0  0  0  0  0  0  0  0
   -0.3580   -0.6759   -0.2459 S   0  0  0  0  0  0  0  0  0  0  0  0
   -0.8626   -0.6070    1.1169 O   0  0  0  0  0  0  0  0  0  0  0  0
    0.2833   -1.8632   -0.7877 O   0  0  0  0  0  0  0  0  0  0  0  0
    0.7049    0.7781   -0.5131 C   0  0  0  0  0  0  0  0  0  0  0  0
    2.0883    0.9841    0.6881 S   0  0  0  0  0  0  0  0  0  0  0  0
    2.7538   -0.3095    0.8487 O   0  0  0  0  0  0  0  0  0  0  0  0
    2.8095    2.1623    0.1879 O   0  0  0  0  0  0  0  0  0  0  0  0
    1.2714    1.4216    2.2339 C   0  0  0  0  0  0  0  0  0  0  0  0
    2.0820    1.5679    2.9508 H   0  0  0  0  0  0  0  0  0  0  0  0
    0.7184    2.3506    2.0900 H   0  0  0  0  0  0  0  0  0  0  0  0
    0.6190    0.6031    2.5351 H   0  0  0  0  0  0  0  0  0  0  0  0
    1.1919    0.6896   -1.4864 H   0  0  0  0  0  0  0  0  0  0  0  0
    0.0743    1.6676   -0.4727 H   0  0  0  0  0  0  0  0  0  0  0  0
   -2.5719   -0.4479   -2.9737 H   0  0  0  0  0  0  0  0  0  0  0  0
   -1.3717   -1.7431   -2.6590 H   0  0  0  0  0  0  0  0  0  0  0  0
   -0.8241   -0.1021   -3.1345 H   0  0  0  0  0  0  0  0  0  0  0  0
  1  2  1  0  0  0  0
  1 16  1  0  0  0  0
  1 17  1  0  0  0  0
  1 18  1  0  0  0  0
  2  3  1  0  0  0  0
  3  4  2  0  0  0  0
  3  5  2  0  0  0  0
  3  6  1  0  0  0  0
  6  7  1  0  0  0  0
  6 14  1  0  0  0  0
  6 15  1  0  0  0  0
  7  8  2  0  0  0  0
  7  9  2  0  0  0  0
  7 10  1  0  0  0  0
 10 11  1  0  0  0  0
 10 12  1  0  0  0  0
 10 13  1  0  0  0  0
M  END
$$$$
