23
0 1 C5H12N2O3S
N                     3.250998865516    -0.478650619164     2.157988327019
S                     1.796930991351     0.023240208943     2.327266581518
O                     1.541616766977     0.754840344737     3.582035591724
C                     1.247668457475     1.084330555838     0.948872678344
H                     0.216605218336     1.400526348419     1.119604455639
H                     1.917134928281     1.946497892179     0.960335339366
H                     1.344032188466     0.542223656749     0.005107935944
C                     0.558119404601    -1.334200716196     2.231012152080
C                     0.816235013752    -2.336769186027     3.351237279670
C                    -0.257993067584    -3.455593978423     3.375276927208
C                     0.217226980391    -4.536124375125     4.336235383323
O                     0.814622912422    -5.542148673773     4.014973353963
O                    -0.052223646946    -4.218129099564     5.629123398727
H                     0.306530391995    -4.942885391785     6.176659274990
N                    -1.618740858154    -3.044044543019     3.726714091066
H                    -1.623213236393    -2.583356960690     4.635293009921
H                    -1.978598882467    -2.383112345927     3.042156248227
H                    -0.290471324180    -3.940275556171     2.395647871410
H                     1.807406525203    -2.781009194508     3.215587903526
H                     0.816079398609    -1.818608333611     4.315238764043
H                    -0.422180436229    -0.856231719614     2.320407148384
H                     0.651964961167    -1.795772368431     1.241577654239
H                     3.383993396636    -0.970189756759     1.271509928148
