
  -OEChem-12102412493D

 16 15  0     0  0  0  0  0  0999 V2000
    0.3885   -2.4438   -2.7281 C   0  0  0  0  0  0  0  0  0  0  0  0
    0.3162   -1.4688   -1.1828 S   0  0  0  0  0  0  0  0  0  0  0  0
    2.0008   -1.5415   -0.6420 C   0  0  0  0  0  0  0  0  0  0  0  0
    2.7450   -2.7218   -0.9496 C   0  0  0  0  0  0  0  0  0  0  0  0
    3.2944   -3.7007   -1.2680 N   0  0  0  0  0  0  0  0  0  0  0  0
    2.5482   -0.5562    0.1350 C   0  0  0  0  0  0  0  0  0  0  0  0
    1.8299    0.6528    0.3881 C   0  0  0  0  0  0  0  0  0  0  0  0
    1.3216    1.6771    0.6200 N   0  0  0  0  0  0  0  0  0  0  0  0
    4.0937   -0.7829    0.9691 S   0  0  0  0  0  0  0  0  0  0  0  0
    4.6951    0.9394    1.0941 C   0  0  0  0  0  0  0  0  0  0  0  0
    5.6617    0.8684    1.5975 H   0  0  0  0  0  0  0  0  0  0  0  0
    4.0199    1.5523    1.6929 H   0  0  0  0  0  0  0  0  0  0  0  0
    4.8327    1.3779    0.1045 H   0  0  0  0  0  0  0  0  0  0  0  0
   -0.6302   -2.4311   -3.1216 H   0  0  0  0  0  0  0  0  0  0  0  0
    0.6876   -3.4746   -2.5325 H   0  0  0  0  0  0  0  0  0  0  0  0
    1.0625   -1.9810   -3.4506 H   0  0  0  0  0  0  0  0  0  0  0  0
  1  2  1  0  0  0  0
  1 14  1  0  0  0  0
  1 15  1  0  0  0  0
  1 16  1  0  0  0  0
  2  3  1  0  0  0  0
  3  4  1  0  0  0  0
  3  6  2  0  0  0  0
  4  5  3  0  0  0  0
  6  7  1  0  0  0  0
  6  9  1  0  0  0  0
  7  8  3  0  0  0  0
  9 10  1  0  0  0  0
 10 11  1  0  0  0  0
 10 12  1  0  0  0  0
 10 13  1  0  0  0  0
M  END
$$$$
