44
0 1 C18H18N4O3S
N                    -0.649592543312     7.492859160514    -3.335836153756
S                     0.794084486521     8.037937495477    -3.168443061319
O                     1.494317092809     8.335619996884    -4.434862362910
C                     0.847403011699     9.515177378227    -2.105093281195
H                     1.885501899984     9.829658213303    -1.980728466191
H                     0.276619221673    10.279938425095    -2.635058039849
H                     0.384775804390     9.292381617334    -1.142302575447
C                     1.864563077439     6.890727425830    -2.216958835231
C                     2.024686449775     5.588687518114    -3.002684285071
C                     2.456885004368     4.378640379963    -2.178038703361
O                     3.853001835510     4.385983983786    -1.770311229194
C                     4.178397765489     4.931304475532    -0.581523833108
N                     3.280487964095     5.636329374141     0.062116927114
N                     3.693317039954     6.150562715634     1.244160615830
C                     4.954468689335     5.991446711495     1.816826292312
N                     5.043001698297     6.669971748920     2.968630514457
C                     3.837263459668     7.274336611433     3.123480773475
H                     3.616973622749     7.889832616029     3.987098325253
C                     2.963730465780     6.983285795873     2.068744659522
C                     1.648653235000     7.489390583819     1.759030441088
C                     1.078171038942     8.711207861410     2.000118291789
H                     1.563368315758     9.547016319960     2.486334488741
C                    -0.241567126501     8.672914772784     1.420589049299
C                    -1.297618139986     9.588728353750     1.261923935894
H                    -1.233565927145    10.591412554637     1.675351278341
C                    -2.424161886893     9.183848017022     0.545756660770
H                    -3.246744180199     9.878986043799     0.403672796668
C                    -2.520048548753     7.888705357443    -0.005167373128
H                    -3.411498493433     7.607590394358    -0.558236119927
C                    -1.484349367991     6.959849489732     0.143678968260
H                    -1.541864384869     5.960406980811    -0.276503014358
C                    -0.369757098972     7.385891205065     0.857261503758
O                     0.773575085991     6.657321624821     1.073940616399
C                     5.890873672132     5.213550443778     1.095788951692
H                     6.882654769272     5.067015368526     1.510356242394
C                     5.511530427446     4.684459028609    -0.110373856397
H                     6.175469420032     4.081657318534    -0.719572525183
H                     2.383380977447     3.482569527585    -2.797766744490
H                     1.828741865524     4.255150718230    -1.292222321056
H                     2.714135271193     5.733824560093    -3.838460601397
H                     1.051885833202     5.321921602562    -3.435430474576
H                     2.818230879202     7.394725188876    -2.044654570812
H                     1.369993267872     6.726628916622    -1.259799135932
H                    -1.151547766993     7.526816007031    -2.445596474399
