
  -OEChem-12122420533D

 18 17  0     0  0  0  0  0  0999 V2000
   -2.6404   -1.9377   -1.3030 C   0  0  0  0  0  0  0  0  0  0  0  0
   -1.7816   -0.8037   -0.9941 O   0  0  0  0  0  0  0  0  0  0  0  0
   -0.4069   -1.1984   -0.1794 S   0  0  0  0  0  0  0  0  0  0  0  0
   -0.7762   -1.8147    1.0879 O   0  0  0  0  0  0  0  0  0  0  0  0
    0.5264   -1.8426   -1.0903 O   0  0  0  0  0  0  0  0  0  0  0  0
    0.0667    0.5399    0.0850 C   0  0  0  0  0  0  0  0  0  0  0  0
    1.8426    0.7219    0.5636 S   0  0  0  0  0  0  0  0  0  0  0  0
    2.1814   -0.3654    1.4835 O   0  0  0  0  0  0  0  0  0  0  0  0
    2.6028    0.9709   -0.6632 O   0  0  0  0  0  0  0  0  0  0  0  0
    1.7734    2.2642    1.5060 C   0  0  0  0  0  0  0  0  0  0  0  0
    2.8098    2.4944    1.7620 H   0  0  0  0  0  0  0  0  0  0  0  0
    1.3590    3.0543    0.8773 H   0  0  0  0  0  0  0  0  0  0  0  0
    1.1840    2.1076    2.4103 H   0  0  0  0  0  0  0  0  0  0  0  0
   -0.0882    1.0770   -0.8508 H   0  0  0  0  0  0  0  0  0  0  0  0
   -0.5693    0.9216    0.8846 H   0  0  0  0  0  0  0  0  0  0  0  0
   -3.4973   -1.5034   -1.8163 H   0  0  0  0  0  0  0  0  0  0  0  0
   -2.9566   -2.4313   -0.3814 H   0  0  0  0  0  0  0  0  0  0  0  0
   -2.1180   -2.6355   -1.9616 H   0  0  0  0  0  0  0  0  0  0  0  0
  1  2  1  0  0  0  0
  1 16  1  0  0  0  0
  1 17  1  0  0  0  0
  1 18  1  0  0  0  0
  2  3  1  0  0  0  0
  3  4  2  0  0  0  0
  3  5  2  0  0  0  0
  3  6  1  0  0  0  0
  6  7  1  0  0  0  0
  6 14  1  0  0  0  0
  6 15  1  0  0  0  0
  7  8  2  0  0  0  0
  7  9  2  0  0  0  0
  7 10  1  0  0  0  0
 10 11  1  0  0  0  0
 10 12  1  0  0  0  0
 10 13  1  0  0  0  0
M  END
$$$$
