
  -OEChem-12102412493D

 18 17  0     0  0  0  0  0  0999 V2000
   -2.8202   -0.1789   -0.5168 C   0  0  0  0  0  0  0  0  0  0  0  0
   -1.6643   -0.8893   -1.0330 O   0  0  0  0  0  0  0  0  0  0  0  0
   -0.3516   -1.0122   -0.0624 S   0  0  0  0  0  0  0  0  0  0  0  0
   -0.7777   -0.8792    1.3310 O   0  0  0  0  0  0  0  0  0  0  0  0
    0.3894   -2.1554   -0.5478 O   0  0  0  0  0  0  0  0  0  0  0  0
    0.5119    0.5220   -0.5249 C   0  0  0  0  0  0  0  0  0  0  0  0
    1.9468    0.9849    0.5362 S   0  0  0  0  0  0  0  0  0  0  0  0
    2.7872   -0.1991    0.7180 O   0  0  0  0  0  0  0  0  0  0  0  0
    2.4636    2.2077   -0.0927 O   0  0  0  0  0  0  0  0  0  0  0  0
    1.2056    1.4262    2.1195 C   0  0  0  0  0  0  0  0  0  0  0  0
    2.0434    1.7363    2.7473 H   0  0  0  0  0  0  0  0  0  0  0  0
    0.5179    2.2594    1.9679 H   0  0  0  0  0  0  0  0  0  0  0  0
    0.7020    0.5540    2.5338 H   0  0  0  0  0  0  0  0  0  0  0  0
    0.9246    0.3882   -1.5268 H   0  0  0  0  0  0  0  0  0  0  0  0
   -0.1990    1.3502   -0.5102 H   0  0  0  0  0  0  0  0  0  0  0  0
   -3.6018   -0.3538   -1.2554 H   0  0  0  0  0  0  0  0  0  0  0  0
   -2.6140    0.8936   -0.4415 H   0  0  0  0  0  0  0  0  0  0  0  0
   -3.1103   -0.5786    0.4553 H   0  0  0  0  0  0  0  0  0  0  0  0
  1  2  1  0  0  0  0
  1 16  1  0  0  0  0
  1 17  1  0  0  0  0
  1 18  1  0  0  0  0
  2  3  1  0  0  0  0
  3  4  2  0  0  0  0
  3  5  2  0  0  0  0
  3  6  1  0  0  0  0
  6  7  1  0  0  0  0
  6 14  1  0  0  0  0
  6 15  1  0  0  0  0
  7  8  2  0  0  0  0
  7  9  2  0  0  0  0
  7 10  1  0  0  0  0
 10 11  1  0  0  0  0
 10 12  1  0  0  0  0
 10 13  1  0  0  0  0
M  END
$$$$
