
  -OEChem-12122420533D

 18 17  0     0  0  0  0  0  0999 V2000
   -1.4722   -1.8652    1.7287 C   0  0  0  0  0  0  0  0  0  0  0  0
   -0.4163   -1.9249    0.7234 O   0  0  0  0  0  0  0  0  0  0  0  0
   -0.5691   -1.0046   -0.5963 S   0  0  0  0  0  0  0  0  0  0  0  0
    0.3968   -1.5063   -1.5520 O   0  0  0  0  0  0  0  0  0  0  0  0
   -1.9812   -0.8363   -0.9283 O   0  0  0  0  0  0  0  0  0  0  0  0
   -0.0061    0.6449   -0.0220 C   0  0  0  0  0  0  0  0  0  0  0  0
    1.3196    0.6268    1.2557 S   0  0  0  0  0  0  0  0  0  0  0  0
    0.6521    0.3971    2.5456 O   0  0  0  0  0  0  0  0  0  0  0  0
    2.4252   -0.2150    0.8009 O   0  0  0  0  0  0  0  0  0  0  0  0
    1.8553    2.3535    1.2075 C   0  0  0  0  0  0  0  0  0  0  0  0
    2.5935    2.4506    2.0063 H   0  0  0  0  0  0  0  0  0  0  0  0
    2.3145    2.5598    0.2397 H   0  0  0  0  0  0  0  0  0  0  0  0
    1.0019    3.0048    1.4030 H   0  0  0  0  0  0  0  0  0  0  0  0
    0.3635    1.1493   -0.9172 H   0  0  0  0  0  0  0  0  0  0  0  0
   -0.8668    1.1660    0.3987 H   0  0  0  0  0  0  0  0  0  0  0  0
   -1.2537   -2.7004    2.3925 H   0  0  0  0  0  0  0  0  0  0  0  0
   -2.4465   -1.9896    1.2549 H   0  0  0  0  0  0  0  0  0  0  0  0
   -1.4022   -0.9261    2.2804 H   0  0  0  0  0  0  0  0  0  0  0  0
  1  2  1  0  0  0  0
  1 16  1  0  0  0  0
  1 17  1  0  0  0  0
  1 18  1  0  0  0  0
  2  3  1  0  0  0  0
  3  4  2  0  0  0  0
  3  5  2  0  0  0  0
  3  6  1  0  0  0  0
  6  7  1  0  0  0  0
  6 14  1  0  0  0  0
  6 15  1  0  0  0  0
  7  8  2  0  0  0  0
  7  9  2  0  0  0  0
  7 10  1  0  0  0  0
 10 11  1  0  0  0  0
 10 12  1  0  0  0  0
 10 13  1  0  0  0  0
M  END
$$$$
