
  -OEChem-12102412493D

 16 16  0     0  0  0  0  0  0999 V2000
    0.6296    2.6344   -3.2016 O   0  0  0  0  0  0  0  0  0  0  0  0
    0.6075    1.9449   -2.0175 C   0  0  0  0  0  0  0  0  0  0  0  0
    1.2678    2.2999   -1.0600 O   0  0  0  0  0  0  0  0  0  0  0  0
   -0.2884    0.7749   -2.0812 C   0  0  0  0  0  0  0  0  0  0  0  0
   -1.0068    0.4347   -3.2066 C   0  0  0  0  0  0  0  0  0  0  0  0
   -1.0084    0.9589   -4.1521 H   0  0  0  0  0  0  0  0  0  0  0  0
   -1.9595   -0.9749   -2.9777 S   0  0  0  0  0  0  0  0  0  0  0  0
   -1.4092   -1.1482   -1.3363 C   0  0  0  0  0  0  0  0  0  0  0  0
   -1.7693   -1.9685   -0.7330 H   0  0  0  0  0  0  0  0  0  0  0  0
   -0.5254   -0.1500   -0.9928 C   0  0  0  0  0  0  0  0  0  0  0  0
    0.0931    0.0197    0.1977 O   0  0  0  0  0  0  0  0  0  0  0  0
   -0.2050   -0.9442    1.2052 C   0  0  0  0  0  0  0  0  0  0  0  0
    0.3753   -0.6520    2.0806 H   0  0  0  0  0  0  0  0  0  0  0  0
    0.0910   -1.9512    0.8852 H   0  0  0  0  0  0  0  0  0  0  0  0
   -1.2742   -0.9368    1.4518 H   0  0  0  0  0  0  0  0  0  0  0  0
    1.2434    3.3786   -3.0550 H   0  0  0  0  0  0  0  0  0  0  0  0
  1  2  1  0  0  0  0
  1 16  1  0  0  0  0
  2  3  2  0  0  0  0
  2  4  1  0  0  0  0
  4  5  2  0  0  0  0
  4 10  1  0  0  0  0
  5  6  1  0  0  0  0
  5  7  1  0  0  0  0
  7  8  1  0  0  0  0
  8  9  1  0  0  0  0
  8 10  2  0  0  0  0
 10 11  1  0  0  0  0
 11 12  1  0  0  0  0
 12 13  1  0  0  0  0
 12 14  1  0  0  0  0
 12 15  1  0  0  0  0
M  END
$$$$
