18
0 1 C3H8O5S2
C                     0.035498710155    -3.010193023935     1.319958139117
O                    -0.820974420102    -1.874232214016     0.972566275737
S                    -0.603529064151    -1.168072717133    -0.471678704121
O                     0.409134381742    -1.884910163443    -1.232013437628
O                    -1.926510101625    -0.887664533713    -1.007573671311
C                     0.031352357996     0.467205029399     0.036301868867
S                     1.786102686802     0.502900783980     0.587750259171
O                     1.987720235963    -0.593099880930     1.545351138802
O                     2.633850616207     0.649354625238    -0.596691533662
C                     1.820158378329     2.058306231575     1.509522693035
H                     2.858309612824     2.188125037959     1.822317050925
H                     1.522393547532     2.874821148321     0.849585290890
H                     1.167556134340     1.977338345309     2.379780365745
H                    -0.061339084240     1.113634378892    -0.838283367446
H                    -0.612982396970     0.809301966775     0.847930442625
H                    -0.344105667610    -3.330240062419     2.289739127648
H                     1.071792569682    -2.685137884079     1.393888571743
H                    -0.083495136081    -3.802243834809     0.580317684783
