
  -OEChem-12122420533D

 23 22  0     1  0  0  0  0  0999 V2000
    1.5880    0.8936    0.9167 N   0  0  0  0  0  0  0  0  0  0  0  0
    1.8048    0.0526    2.1972 S   0  0  1  0  0  0  0  0  0  0  0  0
    3.1584   -0.5148    2.3403 O   0  0  0  0  0  0  0  0  0  0  0  0
    1.4540    1.0033    3.7167 C   0  0  0  0  0  0  0  0  0  0  0  0
    1.6516    0.3932    4.5995 H   0  0  0  0  0  0  0  0  0  0  0  0
    2.1419    1.8503    3.6837 H   0  0  0  0  0  0  0  0  0  0  0  0
    0.4198    1.3557    3.7010 H   0  0  0  0  0  0  0  0  0  0  0  0
    0.6024   -1.3317    2.3225 C   0  0  0  0  0  0  0  0  0  0  0  0
    0.9013   -2.3054    3.4601 C   0  0  0  0  0  0  0  0  0  0  0  0
   -0.1171   -3.4735    3.5733 C   0  0  1  0  0  0  0  0  0  0  0  0
   -0.0660   -4.3124    2.3045 C   0  0  0  0  0  0  0  0  0  0  0  0
    0.7025   -5.2328    2.1184 O   0  0  0  0  0  0  0  0  0  0  0  0
   -0.9509   -3.8878    1.3666 O   0  0  0  0  0  0  0  0  0  0  0  0
   -0.8174   -4.4543    0.5810 H   0  0  0  0  0  0  0  0  0  0  0  0
    0.1246   -4.3683    4.7030 N   0  0  0  0  0  0  0  0  0  0  0  0
    0.9415   -4.9450    4.5053 H   0  0  0  0  0  0  0  0  0  0  0  0
    0.3204   -3.8281    5.5432 H   0  0  0  0  0  0  0  0  0  0  0  0
   -1.1250   -3.0548    3.6595 H   0  0  0  0  0  0  0  0  0  0  0  0
    1.9090   -2.7124    3.3369 H   0  0  0  0  0  0  0  0  0  0  0  0
    0.8771   -1.7797    4.4213 H   0  0  0  0  0  0  0  0  0  0  0  0
   -0.3965   -0.8876    2.3951 H   0  0  0  0  0  0  0  0  0  0  0  0
    0.6880   -1.8043    1.3409 H   0  0  0  0  0  0  0  0  0  0  0  0
    0.6319    1.2487    0.8489 H   0  0  0  0  0  0  0  0  0  0  0  0
  1  2  2  0  0  0  0
  1 23  1  0  0  0  0
  2  3  2  0  0  0  0
  2  4  1  0  0  0  0
  2  8  1  0  0  0  0
  4  5  1  0  0  0  0
  4  6  1  0  0  0  0
  4  7  1  0  0  0  0
  8  9  1  0  0  0  0
  8 21  1  0  0  0  0
  8 22  1  0  0  0  0
  9 10  1  0  0  0  0
  9 19  1  0  0  0  0
  9 20  1  0  0  0  0
 10 11  1  0  0  0  0
 10 15  1  0  0  0  0
 10 18  1  0  0  0  0
 11 12  2  0  0  0  0
 11 13  1  0  0  0  0
 13 14  1  0  0  0  0
 15 16  1  0  0  0  0
 15 17  1  0  0  0  0
M  END
$$$$
