16
0 1 C6H6N2S2
C                     0.388510805936    -2.443849475215    -2.728067057204
S                     0.316156601717    -1.468821271298    -1.182770042648
C                     2.000761982948    -1.541534543422    -0.641964998873
C                     2.744977883366    -2.721820776412    -0.949580653951
N                     3.294363853117    -3.700686742798    -1.267999303031
C                     2.548207756208    -0.556204058271     0.135048543047
C                     1.829902806240     0.652750561778     0.388094004798
N                     1.321619829643     1.677078899056     0.620015246768
S                     4.093729787498    -0.782947375320     0.969072938840
C                     4.695085028710     0.939422520589     1.094145422527
H                     5.661740045748     0.868381538411     1.597496864403
H                     4.019860765887     1.552284566786     1.692947568910
H                     4.832669177280     1.377866212951     0.104523082652
H                    -0.630207559686    -2.431121964241    -3.121615534934
H                     0.687621117417    -3.474569098424    -2.532483408854
H                     1.062462254690    -1.981008453854    -3.450624417028
