16
0 1 C6H6N2S2
C                     0.391384344025    -4.090910505948    -1.197616601428
S                     0.522838276240    -2.275462048215    -1.021991162625
C                     1.918224435365    -2.126842046504     0.058032351102
C                     2.943198479966    -3.117117078843    -0.043715636296
N                     3.718453079172    -3.980844371391    -0.163519293001
C                     2.071517315268    -1.049111293585     0.888293593122
C                     1.019901452404    -0.093839963162     1.040409212485
N                     0.202338082143     0.714356324874     1.239910936529
S                     3.610034294439    -0.712464013627     1.697717577579
C                     3.047901085987     0.191332947737     3.184714778996
H                     3.959720675496     0.423773301968     3.739130662803
H                     2.398773938156    -0.434032905060     3.799586439152
H                     2.541462736478     1.119519131106     2.916230931964
H                    -0.467230234109    -4.252850506606    -1.852887687178
H                     0.205452533449    -4.564136032099    -0.232214919447
H                     1.285058928532    -4.509651216223    -1.662477709165
