16
0 1 C6H6N2S2
C                     1.040324702885    -3.253430805223    -2.319391794903
S                     0.424358100995    -2.261749362736    -0.910978393540
C                     1.930197090923    -1.912860361776    -0.038718600021
C                     2.926949215278    -2.932371281398    -0.038892773408
N                     3.720591891747    -3.783616304859    -0.125585452200
C                     2.097472055132    -0.738214602215     0.645946311244
C                     1.161319219984     0.331713120518     0.462717273271
N                     0.445518987465     1.244275849460     0.339749237390
S                     3.370202689269    -0.320715484554     1.805672755449
C                     3.733441573863    -1.889340853101     2.675476801579
H                     4.191236996356    -1.582417711072     3.618873718192
H                     4.422079362413    -2.524547396435     2.120903662180
H                     2.805596069492    -2.425208604707     2.884499455539
H                     0.152333116488    -3.498827661282    -2.906095944813
H                     1.514316742225    -4.175583468789    -1.979908527271
H                     1.730455723687    -2.670936408194    -2.931787810605
