
  -OEChem-12122420533D

  9  8  0     0  0  0  0  0  0999 V2000
    0.9799   -0.3336    0.3203 C   0  0  0  0  0  0  0  0  0  0  0  0
    1.2263    0.1801    2.0539 S   0  0  0  0  0  0  0  0  0  0  0  0
    2.9024   -0.4926    2.3152 C   0  0  0  0  0  0  0  0  0  0  0  0
    3.1907   -0.2538    3.3418 H   0  0  0  0  0  0  0  0  0  0  0  0
    3.6235   -0.0347    1.6315 H   0  0  0  0  0  0  0  0  0  0  0  0
    2.9165   -1.5795    2.1893 H   0  0  0  0  0  0  0  0  0  0  0  0
   -0.0120    0.0115    0.0182 H   0  0  0  0  0  0  0  0  0  0  0  0
    1.0192   -1.4225    0.2209 H   0  0  0  0  0  0  0  0  0  0  0  0
    1.7264    0.1221   -0.3373 H   0  0  0  0  0  0  0  0  0  0  0  0
  1  2  1  0  0  0  0
  1  7  1  0  0  0  0
  1  8  1  0  0  0  0
  1  9  1  0  0  0  0
  2  3  1  0  0  0  0
  3  4  1  0  0  0  0
  3  5  1  0  0  0  0
  3  6  1  0  0  0  0
M  END
$$$$
