
  -OEChem-12122420533D

 23 22  0     1  0  0  0  0  0999 V2000
    1.5032    0.8508    0.8665 N   0  0  0  0  0  0  0  0  0  0  0  0
    1.7906    0.0040    2.1286 S   0  0  1  0  0  0  0  0  0  0  0  0
    3.0775   -0.7187    2.1040 O   0  0  0  0  0  0  0  0  0  0  0  0
    1.7597    0.9948    3.6612 C   0  0  0  0  0  0  0  0  0  0  0  0
    1.9966    0.3636    4.5194 H   0  0  0  0  0  0  0  0  0  0  0  0
    2.5306    1.7558    3.5262 H   0  0  0  0  0  0  0  0  0  0  0  0
    0.7797    1.4648    3.7741 H   0  0  0  0  0  0  0  0  0  0  0  0
    0.4737   -1.2332    2.4529 C   0  0  0  0  0  0  0  0  0  0  0  0
    0.7865   -2.1579    3.6264 C   0  0  0  0  0  0  0  0  0  0  0  0
   -0.0147   -3.4924    3.5868 C   0  0  1  0  0  0  0  0  0  0  0  0
   -1.4988   -3.1723    3.6310 C   0  0  0  0  0  0  0  0  0  0  0  0
   -2.2364   -3.1440    2.6658 O   0  0  0  0  0  0  0  0  0  0  0  0
   -1.9127   -2.8476    4.8820 O   0  0  0  0  0  0  0  0  0  0  0  0
   -2.8610   -2.6232    4.8117 H   0  0  0  0  0  0  0  0  0  0  0  0
    0.2453   -4.3528    2.4406 N   0  0  0  0  0  0  0  0  0  0  0  0
   -0.3162   -4.0633    1.6428 H   0  0  0  0  0  0  0  0  0  0  0  0
    1.2277   -4.3181    2.1779 H   0  0  0  0  0  0  0  0  0  0  0  0
    0.2332   -4.0304    4.5079 H   0  0  0  0  0  0  0  0  0  0  0  0
    1.8498   -2.4177    3.6010 H   0  0  0  0  0  0  0  0  0  0  0  0
    0.5930   -1.6565    4.5800 H   0  0  0  0  0  0  0  0  0  0  0  0
   -0.4678   -0.6870    2.5685 H   0  0  0  0  0  0  0  0  0  0  0  0
    0.4334   -1.7791    1.5055 H   0  0  0  0  0  0  0  0  0  0  0  0
    0.5836    1.2954    0.9056 H   0  0  0  0  0  0  0  0  0  0  0  0
  1  2  2  0  0  0  0
  1 23  1  0  0  0  0
  2  3  2  0  0  0  0
  2  4  1  0  0  0  0
  2  8  1  0  0  0  0
  4  5  1  0  0  0  0
  4  6  1  0  0  0  0
  4  7  1  0  0  0  0
  8  9  1  0  0  0  0
  8 21  1  0  0  0  0
  8 22  1  0  0  0  0
  9 10  1  0  0  0  0
  9 19  1  0  0  0  0
  9 20  1  0  0  0  0
 10 11  1  0  0  0  0
 10 15  1  0  0  0  0
 10 18  1  0  0  0  0
 11 12  2  0  0  0  0
 11 13  1  0  0  0  0
 13 14  1  0  0  0  0
 15 16  1  0  0  0  0
 15 17  1  0  0  0  0
M  END
$$$$
