16
0 1 C6H6O3S
O                     0.629557491942     2.634437817699    -3.201632516211
C                     0.607490045533     1.944927109006    -2.017496185632
O                     1.267829410688     2.299899277175    -1.059954113464
C                    -0.288414211275     0.774911507161    -2.081211143253
C                    -1.006842470117     0.434650290820    -3.206565686090
H                    -1.008370437562     0.958941772349    -4.152109204766
S                    -1.959499913832    -0.974931311570    -2.977714158784
C                    -1.409174966745    -1.148226724904    -1.336330807930
H                    -1.769306263462    -1.968493936707    -0.733032777257
C                    -0.525354789049    -0.149986104432    -0.992812209518
O                     0.093083668385     0.019652742003     0.197663547626
C                    -0.205001282874    -0.944179416246     1.205164229525
H                     0.375316036777    -0.652045607774     2.080559297474
H                     0.090972584696    -1.951246643800     0.885237293100
H                    -1.274249092268    -0.936837537541     1.451757200708
H                     1.243378931130     3.378586782491    -3.054966220886
