
  -OEChem-12102412493D

 23 22  0     1  0  0  0  0  0999 V2000
    3.2510   -0.4787    2.1580 N   0  0  0  0  0  0  0  0  0  0  0  0
    1.7969    0.0232    2.3273 S   0  0  1  0  0  0  0  0  0  0  0  0
    1.5416    0.7548    3.5820 O   0  0  0  0  0  0  0  0  0  0  0  0
    1.2477    1.0843    0.9489 C   0  0  0  0  0  0  0  0  0  0  0  0
    0.2166    1.4005    1.1196 H   0  0  0  0  0  0  0  0  0  0  0  0
    1.9171    1.9465    0.9603 H   0  0  0  0  0  0  0  0  0  0  0  0
    1.3440    0.5422    0.0051 H   0  0  0  0  0  0  0  0  0  0  0  0
    0.5581   -1.3342    2.2310 C   0  0  0  0  0  0  0  0  0  0  0  0
    0.8162   -2.3368    3.3512 C   0  0  0  0  0  0  0  0  0  0  0  0
   -0.2580   -3.4556    3.3753 C   0  0  1  0  0  0  0  0  0  0  0  0
    0.2172   -4.5361    4.3362 C   0  0  0  0  0  0  0  0  0  0  0  0
    0.8146   -5.5421    4.0150 O   0  0  0  0  0  0  0  0  0  0  0  0
   -0.0522   -4.2181    5.6291 O   0  0  0  0  0  0  0  0  0  0  0  0
    0.3065   -4.9429    6.1767 H   0  0  0  0  0  0  0  0  0  0  0  0
   -1.6187   -3.0440    3.7267 N   0  0  0  0  0  0  0  0  0  0  0  0
   -1.6232   -2.5834    4.6353 H   0  0  0  0  0  0  0  0  0  0  0  0
   -1.9786   -2.3831    3.0422 H   0  0  0  0  0  0  0  0  0  0  0  0
   -0.2905   -3.9403    2.3956 H   0  0  0  0  0  0  0  0  0  0  0  0
    1.8074   -2.7810    3.2156 H   0  0  0  0  0  0  0  0  0  0  0  0
    0.8161   -1.8186    4.3152 H   0  0  0  0  0  0  0  0  0  0  0  0
   -0.4222   -0.8562    2.3204 H   0  0  0  0  0  0  0  0  0  0  0  0
    0.6520   -1.7958    1.2416 H   0  0  0  0  0  0  0  0  0  0  0  0
    3.3840   -0.9702    1.2715 H   0  0  0  0  0  0  0  0  0  0  0  0
  1  2  2  0  0  0  0
  1 23  1  0  0  0  0
  2  3  2  0  0  0  0
  2  4  1  0  0  0  0
  2  8  1  0  0  0  0
  4  5  1  0  0  0  0
  4  6  1  0  0  0  0
  4  7  1  0  0  0  0
  8  9  1  0  0  0  0
  8 21  1  0  0  0  0
  8 22  1  0  0  0  0
  9 10  1  0  0  0  0
  9 19  1  0  0  0  0
  9 20  1  0  0  0  0
 10 11  1  0  0  0  0
 10 15  1  0  0  0  0
 10 18  1  0  0  0  0
 11 12  2  0  0  0  0
 11 13  1  0  0  0  0
 13 14  1  0  0  0  0
 15 16  1  0  0  0  0
 15 17  1  0  0  0  0
M  END
$$$$
