
  -OEChem-12122420533D

 18 18  0     0  0  0  0  0  0999 V2000
   -2.6537   -3.2086   -3.7718 N   0  0  0  0  0  0  0  0  0  0  0  0
   -2.7124   -2.3975   -2.3191 S   0  0  0  0  0  0  0  0  0  0  0  0
   -3.2381   -1.0643   -2.5722 O   0  0  0  0  0  0  0  0  0  0  0  0
   -3.2505   -3.3158   -1.3383 O   0  0  0  0  0  0  0  0  0  0  0  0
   -1.0813   -2.0675   -1.8444 N   0  0  0  0  0  0  0  0  0  0  0  0
   -0.1246   -3.0660   -1.7802 C   0  0  0  0  0  0  0  0  0  0  0  0
   -0.2680   -4.2436   -2.3205 N   0  0  0  0  0  0  0  0  0  0  0  0
    0.7838   -5.0906   -2.0532 N   0  0  0  0  0  0  0  0  0  0  0  0
    1.7168   -4.5300   -1.3381 C   0  0  0  0  0  0  0  0  0  0  0  0
    3.2202   -5.2910   -0.8517 S   0  0  0  0  0  0  0  0  0  0  0  0
    2.9757   -6.9315   -1.6178 C   0  0  0  0  0  0  0  0  0  0  0  0
    3.8680   -7.5072   -1.3636 H   0  0  0  0  0  0  0  0  0  0  0  0
    2.8818   -6.8364   -2.6998 H   0  0  0  0  0  0  0  0  0  0  0  0
    2.0866   -7.4114   -1.2085 H   0  0  0  0  0  0  0  0  0  0  0  0
    1.3637   -2.8642   -0.8626 S   0  0  0  0  0  0  0  0  0  0  0  0
   -0.7997   -1.1044   -2.0010 H   0  0  0  0  0  0  0  0  0  0  0  0
   -2.3123   -2.6017   -4.5157 H   0  0  0  0  0  0  0  0  0  0  0  0
   -2.0797   -4.0515   -3.6721 H   0  0  0  0  0  0  0  0  0  0  0  0
  1  2  1  0  0  0  0
  1 17  1  0  0  0  0
  1 18  1  0  0  0  0
  2  3  2  0  0  0  0
  2  4  2  0  0  0  0
  2  5  1  0  0  0  0
  5  6  1  0  0  0  0
  5 16  1  0  0  0  0
  6  7  2  0  0  0  0
  6 15  1  0  0  0  0
  7  8  1  0  0  0  0
  8  9  2  0  0  0  0
  9 10  1  0  0  0  0
  9 15  1  0  0  0  0
 10 11  1  0  0  0  0
 11 12  1  0  0  0  0
 11 13  1  0  0  0  0
 11 14  1  0  0  0  0
M  END
$$$$
