
  -OEChem-12102412493D

 44 47  0     1  0  0  0  0  0999 V2000
   -0.0453    3.9021    1.6468 N   0  0  0  0  0  0  0  0  0  0  0  0
   -0.7819    3.8034    0.2878 S   0  0  1  0  0  0  0  0  0  0  0  0
   -1.1390    2.4285   -0.1175 O   0  0  0  0  0  0  0  0  0  0  0  0
   -2.3007    4.8036    0.2274 C   0  0  0  0  0  0  0  0  0  0  0  0
   -2.7725    4.6808   -0.7497 H   0  0  0  0  0  0  0  0  0  0  0  0
   -2.9423    4.4031    1.0145 H   0  0  0  0  0  0  0  0  0  0  0  0
   -2.0661    5.8495    0.4244 H   0  0  0  0  0  0  0  0  0  0  0  0
    0.1919    4.5509   -1.0794 C   0  0  0  0  0  0  0  0  0  0  0  0
    1.4442    3.7081   -1.3156 C   0  0  0  0  0  0  0  0  0  0  0  0
    2.4528    4.4487   -2.2118 C   0  0  0  0  0  0  0  0  0  0  0  0
    3.8242    4.2416   -1.7919 O   0  0  0  0  0  0  0  0  0  0  0  0
    4.1979    4.8498   -0.6461 C   0  0  0  0  0  0  0  0  0  0  0  0
    3.3197    5.5868   -0.0068 N   0  0  0  0  0  0  0  0  0  0  0  0
    3.7731    6.1387    1.1432 N   0  0  0  0  0  0  0  0  0  0  0  0
    5.0464    5.9817    1.6891 C   0  0  0  0  0  0  0  0  0  0  0  0
    5.1409    6.6106    2.8679 N   0  0  0  0  0  0  0  0  0  0  0  0
    3.9190    7.1629    3.0789 C   0  0  0  0  0  0  0  0  0  0  0  0
    3.7053    7.7534    3.9613 H   0  0  0  0  0  0  0  0  0  0  0  0
    3.0333    6.8931    2.0298 C   0  0  0  0  0  0  0  0  0  0  0  0
    1.6439    7.2398    1.8550 C   0  0  0  0  0  0  0  0  0  0  0  0
    0.6138    7.3008    2.7546 C   0  0  0  0  0  0  0  0  0  0  0  0
    0.6738    7.0209    3.7978 H   0  0  0  0  0  0  0  0  0  0  0  0
   -0.5449    7.7587    2.0271 C   0  0  0  0  0  0  0  0  0  0  0  0
   -1.8913    8.0156    2.3398 C   0  0  0  0  0  0  0  0  0  0  0  0
   -2.2637    7.8816    3.3515 H   0  0  0  0  0  0  0  0  0  0  0  0
   -2.7395    8.4420    1.3175 C   0  0  0  0  0  0  0  0  0  0  0  0
   -3.7836    8.6450    1.5380 H   0  0  0  0  0  0  0  0  0  0  0  0
   -2.2720    8.6123   -0.0025 C   0  0  0  0  0  0  0  0  0  0  0  0
   -2.9598    8.9467   -0.7737 H   0  0  0  0  0  0  0  0  0  0  0  0
   -0.9385    8.3557   -0.3380 C   0  0  0  0  0  0  0  0  0  0  0  0
   -0.5638    8.4816   -1.3492 H   0  0  0  0  0  0  0  0  0  0  0  0
   -0.1096    7.9360    0.6966 C   0  0  0  0  0  0  0  0  0  0  0  0
    1.2221    7.6205    0.5862 O   0  0  0  0  0  0  0  0  0  0  0  0
    5.9668    5.1965    0.9558 C   0  0  0  0  0  0  0  0  0  0  0  0
    6.9688    5.0576    1.3474 H   0  0  0  0  0  0  0  0  0  0  0  0
    5.5473    4.6246   -0.2163 C   0  0  0  0  0  0  0  0  0  0  0  0
    6.1905    4.0015   -0.8273 H   0  0  0  0  0  0  0  0  0  0  0  0
    2.2583    5.5247   -2.2233 H   0  0  0  0  0  0  0  0  0  0  0  0
    2.4365    4.0753   -3.2364 H   0  0  0  0  0  0  0  0  0  0  0  0
    1.1726    2.7447   -1.7527 H   0  0  0  0  0  0  0  0  0  0  0  0
    1.9063    3.5026   -0.3483 H   0  0  0  0  0  0  0  0  0  0  0  0
   -0.4568    4.5994   -1.9596 H   0  0  0  0  0  0  0  0  0  0  0  0
    0.4578    5.5609   -0.7568 H   0  0  0  0  0  0  0  0  0  0  0  0
    0.1893    4.8713    1.8750 H   0  0  0  0  0  0  0  0  0  0  0  0
  1  2  2  0  0  0  0
  1 44  1  0  0  0  0
  2  3  2  0  0  0  0
  2  4  1  0  0  0  0
  2  8  1  0  0  0  0
  4  5  1  0  0  0  0
  4  6  1  0  0  0  0
  4  7  1  0  0  0  0
  8  9  1  0  0  0  0
  8 42  1  0  0  0  0
  8 43  1  0  0  0  0
  9 10  1  0  0  0  0
  9 40  1  0  0  0  0
  9 41  1  0  0  0  0
 10 11  1  0  0  0  0
 10 38  1  0  0  0  0
 10 39  1  0  0  0  0
 11 12  1  0  0  0  0
 12 13  2  0  0  0  0
 12 36  1  0  0  0  0
 13 14  1  0  0  0  0
 14 15  1  0  0  0  0
 14 19  1  0  0  0  0
 15 16  2  0  0  0  0
 15 34  1  0  0  0  0
 16 17  1  0  0  0  0
 17 18  1  0  0  0  0
 17 19  2  0  0  0  0
 19 20  1  0  0  0  0
 20 21  2  0  0  0  0
 20 33  1  0  0  0  0
 21 22  1  0  0  0  0
 21 23  1  0  0  0  0
 23 24  1  0  0  0  0
 23 32  2  0  0  0  0
 24 25  1  0  0  0  0
 24 26  2  0  0  0  0
 26 27  1  0  0  0  0
 26 28  1  0  0  0  0
 28 29  1  0  0  0  0
 28 30  2  0  0  0  0
 30 31  1  0  0  0  0
 30 32  1  0  0  0  0
 32 33  1  0  0  0  0
 34 35  1  0  0  0  0
 34 36  2  0  0  0  0
 36 37  1  0  0  0  0
M  END
$$$$
