44
0 1 C18H18N4O3S
N                    -0.045346655711     3.902119905451     1.646750917012
S                    -0.781873971098     3.803373294772     0.287810462412
O                    -1.138986994466     2.428524376191    -0.117529776939
C                    -2.300682586450     4.803624524057     0.227428707372
H                    -2.772513010969     4.680784797774    -0.749668923404
H                    -2.942267143951     4.403064802834     1.014501939817
H                    -2.066062519538     5.849498560180     0.424416331655
C                     0.191933241073     4.550945887948    -1.079416801472
C                     1.444161158188     3.708064949519    -1.315567121875
C                     2.452826797257     4.448651710291    -2.211798860000
O                     3.824228639613     4.241625096895    -1.791867448083
C                     4.197944100539     4.849848116366    -0.646139069334
N                     3.319720247017     5.586832021726    -0.006767626180
N                     3.773092843426     6.138668865145     1.143217401134
C                     5.046440873907     5.981713179343     1.689052988685
N                     5.140901122720     6.610637828259     2.867872548826
C                     3.919022254193     7.162857367345     3.078886480754
H                     3.705294574527     7.753433866746     3.961295337538
C                     3.033321163728     6.893136425705     2.029824670530
C                     1.643949685697     7.239849016050     1.855007872715
C                     0.613804812440     7.300780178745     2.754645749917
H                     0.673786054416     7.020921810448     3.797830068239
C                    -0.544860747877     7.758716531713     2.027092285170
C                    -1.891267894248     8.015571323241     2.339847986665
H                    -2.263703571841     7.881645879448     3.351482537432
C                    -2.739457067487     8.442009783897     1.317522214705
H                    -3.783638503843     8.645008088694     1.538019610803
C                    -2.271951708854     8.612295972813    -0.002501293672
H                    -2.959849056775     8.946682777063    -0.773719180945
C                    -0.938464058949     8.355723058110    -0.337985807253
H                    -0.563750516886     8.481624931823    -1.349206964783
C                    -0.109576941976     7.935962554556     0.696638932100
O                     1.222100567319     7.620462423628     0.586209665558
C                     5.966764944454     5.196535057492     0.955753855370
H                     6.968839866576     5.057590897032     1.347375239035
C                     5.547275178545     4.624587776116    -0.216329829224
H                     6.190486982428     4.001476736830    -0.827321175772
H                     2.258334153562     5.524748215814    -2.223279655925
H                     2.436490758090     4.075268144020    -3.236431521800
H                     1.172640849987     2.744694805309    -1.752721368128
H                     1.906312910357     3.502611675222    -0.348304667609
H                    -0.456761558393     4.599385674416    -1.959614274319
H                     0.457776107525     5.560914207848    -0.756769677222
H                     0.189314136679     4.871273840155     1.874956271318
