18
0 1 C7H7N3S
C                     2.157699533848    -4.798729227392     1.221501210627
H                     2.629489047677    -5.775499980113     1.129612710140
N                     1.914906907012    -4.077426012266     0.178154895286
C                     1.303174087940    -2.883049102515     0.657076114508
N                     0.904189706107    -1.883265321919    -0.131530017314
C                     0.355898111869    -0.861749916065     0.542520265867
H                     0.013238166982    -0.019072462149    -0.055162739508
N                     0.175546326809    -0.746756755378     1.866747542131
C                     0.586886028118    -1.769298278178     2.638847821820
S                     0.383946996459    -1.692613303542     4.392041057267
C                    -0.407670148400    -0.061138769499     4.585256886312
H                    -0.568380753978     0.063322339882     5.658400344870
H                    -1.360732253928    -0.032789328128     4.056841849579
H                     0.243800989886     0.727729569631     4.208927924978
C                     1.173943816574    -2.890314366944     2.052897093255
C                     1.741174562638    -4.185928565751     2.547254671009
H                     1.010095079009    -4.814965416111     3.071534568849
H                     2.597807604957    -4.062258634510     3.222471117885
