16   
torsion grid (-165,)
C        0.8205158249   -0.5663561063   -1.2889260133
C       -1.3992065017    0.2085788437   -0.9228326461
C        0.5487313196   -0.7447867771    0.2049832380
C       -0.8791562483   -0.2459972871    0.4407480423
C        0.2979101642    0.4964816159    1.0189668677
N       -0.2211489933    0.3461935364   -1.8074613911
O        0.5294581035    0.5176673790    2.4106403307
H        1.8128005563   -0.1600527061   -1.5123935647
H        0.7400857149   -1.5405301869   -1.7869533876
H       -2.0758092926   -0.5559046024   -1.3244832293
H       -1.9495104142    1.1551027271   -0.8918391708
H        0.9215506667   -1.6346080576    0.7091867824
H       -1.5469779519   -0.7646653826    1.1243737716
H        0.5686389557    1.4636074794    0.5994179766
H        0.1219290653    1.3007909442   -1.7492198562
H        0.5183084666   -0.3944241180    2.7395939721
16   
torsion grid (-150,)
C        0.8188958230   -0.5664098284   -1.2699341501
C       -1.4049493921    0.2116365302   -0.9325513560
C        0.5239102890   -0.7480936743    0.2191311876
C       -0.9041529816   -0.2477534781    0.4360358675
C        0.2678482365    0.4919162030    1.0318549681
N       -0.2148741263    0.3469832329   -1.8021673964
O        0.4685191512    0.5000985686    2.4293223183
H        1.8145449890   -0.1597923932   -1.4773696906
H        0.7460200934   -1.5399228979   -1.7703573478
H       -2.0801485140   -0.5483054113   -1.3450718847
H       -1.9513020601    1.1606382118   -0.9060675077
H        0.8860040607   -1.6418062224    0.7250870283
H       -1.5783228433   -0.7626003796    1.1153331811
H        0.5430194284    1.4597690555    0.6150484744
H        0.1286163994    1.3011372907   -1.7401351165
H        0.6886817582   -0.3989097098    2.7161933802
16   
torsion grid (-135,)
C        0.8195286395   -0.5684908337   -1.2615220317
C       -1.4052745821    0.2154849238   -0.9451361479
C        0.5062373735   -0.7548444832    0.2230415003
C       -0.9200282450   -0.2506236400    0.4262056493
C        0.2477517635    0.4848874332    1.0360552540
N       -0.2056939548    0.3494191732   -1.8025985330
O        0.4140082840    0.4742618088    2.4384598170
H        1.8186113401   -0.1641299953   -1.4566746229
H        0.7496445445   -1.5403918124   -1.7655070153
H       -2.0792649098   -0.5402340089   -1.3671739711
H       -1.9481772634    1.1665649066   -0.9208348328
H        0.8559801386   -1.6519090567    0.7315925795
H       -1.5992766627   -0.7630343737    1.1014953082
H        0.5215040302    1.4549117643    0.6205303217
H        0.1401230033    1.3022229507   -1.7331384995
H        0.8585009695   -0.3482660802    2.6911727968
16   
torsion grid (-120,)
C        0.8179832410   -0.5712754488   -1.2533241030
C       -1.4063793136    0.2206584936   -0.9517538529
C        0.4883425476   -0.7680937788    0.2260646791
C       -0.9351739371   -0.2584153617    0.4193726221
C        0.2287286101    0.4689131607    1.0447437299
N       -0.1989748171    0.3537010000   -1.7987434347
O        0.3572593040    0.4290029118    2.4504091888
H        1.8201433505   -0.1680432714   -1.4351192613
H        0.7513552051   -1.5391526381   -1.7654193359
H       -2.0816126785   -0.5278196385   -1.3845114040
H       -1.9438491971    1.1747674655   -0.9246431413
H        0.8266947838   -1.6689554687    0.7346130383
H       -1.6202781980   -0.7695667277    1.0890683222
H        0.5025072880    1.4430595918    0.6356795063
H        0.1501321786    1.3046348716   -1.7211123176
H        0.9975324601   -0.2604258964    2.6802445360
16   
torsion grid (-105,)
C        0.8154852070   -0.5749944428   -1.2495843812
C       -1.4064922347    0.2267809152   -0.9547771534
C        0.4740724586   -0.7856441104    0.2249200529
C       -0.9463443441   -0.2688473919    0.4137043457
C        0.2142133692    0.4472596685    1.0531417882
N       -0.1936045733    0.3599448360   -1.7939131474
O        0.3096695719    0.3752893982    2.4592856020
H        1.8205031381   -0.1734931616   -1.4199165874
H        0.7498898129   -1.5370799991   -1.7726181039
H       -2.0840715534   -0.5133823718   -1.3979668935
H       -1.9382148462    1.1839000164   -0.9213775675
H        0.8026654499   -1.6906088445    0.7311191511
H       -1.6373463645   -0.7810980389    1.0761295743
H        0.4946417885    1.4245771940    0.6532435118
H        0.1600048843    1.3083355613   -1.7065412644
H        1.1006911229   -0.1380424690    2.6828707419
16   
torsion grid (-90,)
C        0.8126500449   -0.5794895174   -1.2506697977
C       -1.4053755650    0.2334024144   -0.9550772710
C        0.4643426042   -0.8054230135    0.2196649264
C       -0.9530176498   -0.2805556017    0.4089474130
C        0.2050890047    0.4219250132    1.0605598790
N       -0.1891189603    0.3676890534   -1.7889084169
O        0.2760529757    0.3193919119    2.4652688076
H        1.8204549195   -0.1810500874   -1.4125249290
H        0.7449485360   -1.5346372113   -1.7860426895
H       -2.0858556796   -0.4981634734   -1.4079087786
H       -1.9316372264    1.1931731221   -0.9130246375
H        0.7849817234   -1.7150560379    0.7211291532
H       -1.6495990818   -0.7960330814    1.0629177603
H        0.4997724526    1.4004911005    0.6718908065
H        0.1699696087    1.3129279675   -1.6904529066
H        1.1648992472    0.0086116923    2.6977441459
16   
torsion grid (-75,)
C        0.8096852766   -0.5846997856   -1.2553287691
C       -1.4031650277    0.2397211184   -0.9525331986
C        0.4586818316   -0.8265372848    0.2116256450
C       -0.9556707485   -0.2934287370    0.4056824531
C        0.2016892792    0.3936624309    1.0675032502
N       -0.1854553183    0.3758662754   -1.7835277113
O        0.2589571915    0.2631145030    2.4700812828
H        1.8201149443   -0.1902541725   -1.4114913771
H        0.7373010680   -1.5322070285   -1.8035531687
H       -2.0872102675   -0.4829937037   -1.4140750319
H       -1.9240715322    1.2018719011   -0.9001476287
H        0.7729735230   -1.7416392180    0.7059912136
H       -1.6571794660   -0.8130224163    1.0512353055
H        0.5162492952    1.3714098071    0.6914006972
H        0.1797245937    1.3175251893   -1.6736944570
H        1.1912033075    0.1662374859    2.7213731519
16   
torsion grid (-60,)
C        0.8063762522   -0.5904594933   -1.2622941435
C       -1.4005054942    0.2456283553   -0.9479954935
C        0.4559373280   -0.8475547642    0.2020688792
C       -0.9553890992   -0.3062092186    0.4036721936
C        0.2035723616    0.3640794457    1.0741202408
N       -0.1827331673    0.3836682208   -1.7781219914
O        0.2572193630    0.2068415814    2.4746377526
H        1.8192587779   -0.2008112419   -1.4152544198
H        0.7272832936   -1.5303061128   -1.8227103786
H       -2.0886451791   -0.4682517686   -1.4170935857
H       -1.9160825967    1.2099971579   -0.8846827793
H        0.7650496393   -1.7686310394    0.6877612068
H       -1.6609922989   -0.8297903223    1.0417812689
H        0.5382693274    1.3400382188    0.7111063516
H        0.1888873712    1.3215165560   -1.6575561343
H        1.1796122893    0.3249888235    2.7515142497
16   
torsion grid (-45,)
C        0.8045812196   -0.5995825349   -1.2665765948
C       -1.3950676903    0.2489071003   -0.9384681869
C        0.4556728241   -0.8715778856    0.1952927703
C       -0.9529709869   -0.3235050635    0.4059989276
C        0.2102289558    0.3294245351    1.0838777500
N       -0.1770619645    0.3899854431   -1.7674990235
O        0.2706527646    0.1443521135    2.4825529842
H        1.8206423117   -0.2175756712   -1.4180764160
H        0.7148064116   -1.5312781849   -1.8388762132
H       -2.0875538358   -0.4549634938   -1.4162405309
H       -1.9049841525    1.2154382797   -0.8630282393
H        0.7612346685   -1.7983560346    0.6719942342
H       -1.6625940601   -0.8512168504    1.0364670756
H        0.5613845764    1.3041537067    0.7346510809
H        0.2019823376    1.3230719348   -1.6333617818
H        1.1314872521    0.4679199480    2.7895786809
16   
torsion grid (-30,)
C        0.7994116821   -0.6036332330   -1.2805917580
C       -1.3932049336    0.2562682781   -0.9332939398
C        0.4574289516   -0.8861687248    0.1809282814
C       -0.9473529241   -0.3301726170    0.4040657427
C        0.2257862314    0.3061728853    1.0819280494
N       -0.1787345402    0.3964050347   -1.7675454165
O        0.3059393964    0.0981360937    2.4789410851
H        1.8169576931   -0.2265384938   -1.4343568704
H        0.7007604873   -1.5296811122   -1.8605275411
H       -2.0924448726   -0.4393834213   -1.4133054389
H       -1.8968235785    1.2253625961   -0.8477898247
H        0.7606177484   -1.8183673312    0.6483726314
H       -1.6570462826   -0.8588875705    1.0338499185
H        0.5834229287    1.2807103413    0.7409086755
H        0.2071402596    1.3260299561   -1.6288598596
H        1.0548797754    0.6099391520    2.8178654518
16   
torsion grid (-15,)
C        0.7953970104   -0.6108440609   -1.2913526348
C       -1.3888384649    0.2611593942   -0.9239087121
C        0.4612706194   -0.9010832193    0.1704766557
C       -0.9396939572   -0.3388430216    0.4066126144
C        0.2468227030    0.2814908219    1.0822386077
N       -0.1781708448    0.3999864849   -1.7641124587
O        0.3558914285    0.0490898331    2.4758493461
H        1.8148714860   -0.2411464148   -1.4495533000
H        0.6845891334   -1.5321201746   -1.8766067494
H       -2.0956550150   -0.4254430203   -1.4059492089
H       -1.8853166200    1.2331421467   -0.8284691732
H        0.7637499854   -1.8378030577    0.6293996334
H       -1.6486910772   -0.8682920920    1.0365881566
H        0.6012587460    1.2594688823    0.7496605151
H        0.2152147736    1.3257085021   -1.6203372542
H        0.9460841001    0.7174627383    2.8508727481
16   
torsion grid (0,)
C        0.8436617821   -0.5132170728   -1.3169224723
C       -1.4082047421    0.1453595558   -0.9161373426
C        0.5512426464   -0.8616484838    0.1411059658
C       -0.8943349293   -0.4379375557    0.3984665027
C        0.2429691975    0.2738416606    1.0778686940
N       -0.2225028932    0.4130086523   -1.7612910710
O        0.4128790039    0.0146251934    2.4616486111
H        1.8237498361   -0.0495085604   -1.4753291356
H        0.8108972618   -1.4296205756   -1.9190846032
H       -2.0532398264   -0.5926179965   -1.4088678488
H       -1.9910543126    1.0655826015   -0.7971174925
H        0.9453664987   -1.7746965215    0.5778420300
H       -1.5445304385   -1.0444438875    1.0222875235
H        0.4861503728    1.2918417215    0.7668965630
H        0.0854428311    1.3677916002   -1.6001076085
H        0.7259209692    0.8239065120    2.8881385027
16   
torsion grid (15,)
C        0.8393971271   -0.5182626399   -1.3278919825
C       -1.4047394675    0.1529924767   -0.9053411644
C        0.5596513676   -0.8622854120    0.1335330007
C       -0.8813462799   -0.4324906077    0.4045820080
C        0.2736588722    0.2733619985    1.0704120950
N       -0.2257618310    0.4130652478   -1.7628187157
O        0.4841519562    0.0075382617    2.4463574059
H        1.8207035005   -0.0613253045   -1.4969852843
H        0.7942615972   -1.4361043935   -1.9269861768
H       -2.0599727015   -0.5802550410   -1.3917256187
H       -1.9802094871    1.0773574453   -0.7812513892
H        0.9549638948   -1.7765017090    0.5668491566
H       -1.5270715806   -1.0366513509    1.0351226956
H        0.5028046115    1.2946334223    0.7587140387
H        0.0892829642    1.3662152342   -1.6057775783
H        0.5718934378    0.8520756204    2.9097704362
16   
torsion grid (30,)
C        0.8359124687   -0.5231781352   -1.3362760440
C       -1.4005103097    0.1605579698   -0.8934037679
C        0.5697741837   -0.8586293690    0.1294131815
C       -0.8661823471   -0.4228516395    0.4130541933
C        0.3040067196    0.2818934570    1.0619020999
N       -0.2293498536    0.4108505460   -1.7647385971
O        0.5514949952    0.0182083264    2.4296891704
H        1.8176092849   -0.0720094135   -1.5172569414
H        0.7800437591   -1.4440924399   -1.9296660572
H       -2.0655969768   -0.5702269424   -1.3700577381
H       -1.9691125087    1.0889682760   -0.7669191853
H        0.9663641552   -1.7723060005    0.5626488549
H       -1.5069318897   -1.0234956245    1.0518870984
H        0.5253023902    1.3033716304    0.7433388266
H        0.0920144077    1.3630964331   -1.6152888295
H        0.4160786157    0.8393242541    2.9248490869
16   
torsion grid (45,)
C        0.8331744794   -0.5284600170   -1.3438578305
C       -1.3958419348    0.1671913384   -0.8816891074
C        0.5804915833   -0.8529266379    0.1263700157
C       -0.8499824123   -0.4110867707    0.4223095715
C        0.3314100238    0.2956063700    1.0524915299
N       -0.2332085238    0.4064195917   -1.7676037742
O        0.6096502583    0.0402286019    2.4132118515
H        1.8145972876   -0.0820621295   -1.5373177002
H        0.7680916515   -1.4532184237   -1.9302224341
H       -2.0703022777   -0.5627929657   -1.3463065663
H       -1.9580801534    1.0993564427   -0.7543390079
H        0.9785322835   -1.7646044612    0.5621932333
H       -1.4859173260   -1.0073588364    1.0700568372
H        0.5538013188    1.3138380200    0.7221690499
H        0.0936714785    1.3582491910   -1.6280053601
H        0.2684667865    0.7845143382    2.9324704558
16   
torsion grid (60,)
C        0.8322284534   -0.5333433649   -1.3541695469
C       -1.3903203516    0.1750310829   -0.8781062390
C        0.5919890377   -0.8404961488    0.1215002042
C       -0.8335650968   -0.3926739702    0.4261173561
C        0.3541931136    0.3199467543    1.0373627662
N       -0.2361588667    0.3991106807   -1.7786839776
O        0.6547886669    0.0822434680    2.3946359375
H        1.8127345203   -0.0908121012   -1.5605898715
H        0.7606050852   -1.4642758673   -1.9298854434
H       -2.0738534695   -0.5561615815   -1.3272982033
H       -1.9460647350    1.1114556033   -0.7539657739
H        0.9919467512   -1.7472780246    0.5653206600
H       -1.4658709820   -0.9832355788    1.0828175275
H        0.5851269481    1.3306272783    0.6888071838
H        0.0948311439    1.3516216645   -1.6547249780
H        0.1350025946    0.7047954424    2.9272516572
16   
torsion grid (75,)
C        0.8292046501   -0.5391420464   -1.3586179852
C       -1.3871077591    0.1808536568   -0.8711477756
C        0.6005375145   -0.8307896840    0.1218896257
C       -0.8199203048   -0.3754215337    0.4336512679
C        0.3713848906    0.3428454693    1.0272364628
N       -0.2405498469    0.3918697055   -1.7837612213
O        0.6860792435    0.1281833896    2.3845997900
H        1.8088903812   -0.1004469735   -1.5767566533
H        0.7515870959   -1.4753575842   -1.9249495536
H       -2.0764058235   -0.5535966384   -1.3059010710
H       -1.9391485582    1.1199144746   -0.7513229518
H        1.0022084975   -1.7327233441    0.5735605260
H       -1.4497276110   -0.9590379825    1.0994761108
H        0.6141170855    1.3441169474    0.6599115786
H        0.0941366517    1.3446099447   -1.6723510507
H        0.0212652826    0.5896577104    2.9200243295
16   
torsion grid (90,)
C        0.8262222444   -0.5452004587   -1.3609989651
C       -1.3846907422    0.1862741354   -0.8664128884
C        0.6073780243   -0.8193644358    0.1243579834
C       -0.8088287451   -0.3561706700    0.4406390953
C        0.3837995731    0.3679327660    1.0185766048
N       -0.2444691080    0.3837606469   -1.7890628626
O        0.7060189319    0.1834469268    2.3790528963
H        1.8051928137   -0.1105462306   -1.5902846983
H        0.7433482247   -1.4871525315   -1.9170173354
H       -2.0780493103   -0.5527126214   -1.2867308857
H       -1.9341605868    1.1274924140   -0.7532192636
H        1.0105315713   -1.7159457753    0.5850411526
H       -1.4377884629   -0.9323708854    1.1145166765
H        0.6377144308    1.3591331657    0.6331643376
H        0.0933170938    1.3368270286   -1.6906777116
H       -0.0619520514    0.4517958602    2.9071496914
16   
torsion grid (105,)
C        0.8231376069   -0.5511341281   -1.3603213431
C       -1.3837203635    0.1914256385   -0.8650150721
C        0.6110247432   -0.8065814988    0.1296047860
C       -0.8023966596   -0.3352196182    0.4463988771
C        0.3900967449    0.3942230042    1.0115577994
N       -0.2474065442    0.3754540781   -1.7943118295
O        0.7132386606    0.2485279236    2.3775317764
H        1.8018287019   -0.1209731913   -1.5991662128
H        0.7359398867   -1.4991218585   -1.9053794267
H       -2.0789846152   -0.5530477916   -1.2722527771
H       -1.9319257338    1.1342593522   -0.7610305384
H        1.0146581058   -1.6981205256    0.5996366538
H       -1.4329077398   -0.9034136205    1.1266806191
H        0.6502353987    1.3769830380    0.6112844263
H        0.0928630809    1.3288486661   -1.7084422912
H       -0.1079985122    0.2987408824    2.8896482347
16   
torsion grid (120,)
C        0.8203072815   -0.5562094297   -1.3567346435
C       -1.3844696255    0.1962724572   -0.8681893152
C        0.6108772774   -0.7921742312    0.1372521164
C       -0.8019352330   -0.3128599548    0.4499279017
C        0.3899119033    0.4209592012    1.0056884039
N       -0.2487325406    0.3677643130   -1.7998336456
O        0.7080149724    0.3206757435    2.3778229826
H        1.7994436261   -0.1312282382   -1.6029371455
H        0.7296323060   -1.5104324552   -1.8902832339
H       -2.0791005420   -0.5545179676   -1.2647610354
H       -1.9330662853    1.1399538599   -0.7761089350
H        1.0130781731   -1.6800571356    0.6158291590
H       -1.4363975312   -0.8721896673    1.1349538656
H        0.6501121745    1.3981526188    0.5950299651
H        0.0933465002    1.3214623524   -1.7248823983
H       -0.1069443648    0.1399955668    2.8690275905
16   
torsion grid (135,)
C        0.8184567329   -0.5603370807   -1.3495793791
C       -1.3864700000    0.2002670837   -0.8757440766
C        0.6066399808   -0.7775471963    0.1474976804
C       -0.8079373937   -0.2912238037    0.4511125337
C        0.3829145454    0.4459853092    1.0016544331
N       -0.2476446845    0.3605669420   -1.8051405363
O        0.6899299708    0.3918347216    2.3790873193
H        1.7988386919   -0.1406342149   -1.5997596745
H        0.7259673569   -1.5206669911   -1.8717925915
H       -2.0787677266   -0.5564263235   -1.2651231937
H       -1.9361377569    1.1444469872   -0.7973159922
H        1.0055823620   -1.6634106017    0.6333434800
H       -1.4484955012   -0.8406279457    1.1392315383
H        0.6387333563    1.4206001097    0.5854482698
H        0.0953916907    1.3146355748   -1.7394307287
H       -0.0546196026   -0.0147375747    2.8463489761
16   
torsion grid (150,)
C        0.8193048399   -0.5636247211   -1.3365354784
C       -1.3877987904    0.2027548463   -0.8842824197
C        0.5990256446   -0.7659655445    0.1619963528
C       -0.8192172928   -0.2744675290    0.4522645048
C        0.3703041202    0.4645479832    1.0033256752
N       -0.2419993268    0.3548695820   -1.8063893257
O        0.6622084458    0.4474823462    2.3844460164
H        1.8020243334   -0.1489051330   -1.5857065534
H        0.7267713253   -1.5288621998   -1.8496243103
H       -2.0764343673   -0.5582451585   -1.2718114592
H       -1.9386929790    1.1471837912   -0.8193182545
H        0.9929432342   -1.6520103360    0.6527424339
H       -1.4671099552   -0.8142896528    1.1411528855
H        0.6231998990    1.4381377410    0.5857298767
H        0.1015274423    1.3091480971   -1.7460190167
H        0.0468746126   -0.1584970838    2.8239207473
16   
torsion grid (165,)
C        0.8200633361   -0.5651647803   -1.3188298545
C       -1.3910005877    0.2046967044   -0.8943205462
C        0.5854471902   -0.7566235929    0.1794343612
C       -0.8371407790   -0.2615892026    0.4522462958
C        0.3493915872    0.4785460328    1.0097756469
N       -0.2351515991    0.3510898703   -1.8049623570
O        0.6229926467    0.4851178952    2.3939423925
H        1.8058171052   -0.1541992547   -1.5619182915
H        0.7302236351   -1.5342376190   -1.8251677770
H       -2.0750063191   -0.5590331722   -1.2846622208
H       -1.9428628901    1.1493630223   -0.8422683051
H        0.9735864346   -1.6435230426    0.6745107629
H       -1.4926762843   -0.7928005442    1.1400606426
H        0.6056320464    1.4507227234    0.5928148028
H        0.1081448615    1.3056106638   -1.7467489426
H        0.1814930775   -0.2768894620    2.7997433284
16   
torsion grid (180,)
C        0.8199105256   -0.5660912373   -1.3062894447
C       -1.3955596558    0.2065179895   -0.9106627821
C        0.5687818123   -0.7472038205    0.1907736922
C       -0.8572459199   -0.2499848067    0.4454886023
C        0.3245400601    0.4928745588    1.0103015644
N       -0.2294356332    0.3467387477   -1.8096921588
O        0.5796368086    0.5143242491    2.3974932722
H        1.8085865700   -0.1577766355   -1.5418464041
H        0.7345216759   -1.5389736386   -1.8060467999
H       -2.0758625278   -0.5589554678   -1.3040764574
H       -1.9471200255    1.1519600177   -0.8710203127
H        0.9507128713   -1.6341596646    0.6919168143
H       -1.5191993869   -0.7734253821    1.1322019324
H        0.5878047171    1.4618722279    0.5909564965
H        0.1134536837    1.3015834030   -1.7545303877
H        0.3438979710   -0.3506623322    2.7677215083
