24   
torsion grid (-165,)
C        4.9195256492    2.2485213675   -4.8468941402
C        4.0654075741    1.3649886491   -4.2534014455
C        5.6231739518   -0.1541629108   -4.8240355950
C        1.8548100353    0.4161153988   -3.7495675948
C        1.3129185799   -1.3000016288   -5.2893968495
C        5.1254874523   -2.5891085149   -2.8757526444
C        2.7089020061    1.6707127974   -3.6537894778
N        4.4570526651    0.0472216205   -4.2234775431
N        6.3097851401   -1.2785987284   -5.0508002486
O        1.4528625467   -0.2261911366   -2.7954857962
O        6.7160382950   -3.7147279008   -4.6345069192
O        4.4000585861   -3.0225537476   -5.3843281190
O        1.6207120334    0.0897554242   -5.0388532317
S        6.3385739467    1.3898599251   -5.4323857020
S        5.6340554969   -2.7068744160   -4.6194695180
H        4.7958512358    3.3143083690   -4.9916770198
H        0.9966796593   -1.3443901827   -6.3329288060
H        0.5134714535   -1.6449023218   -4.6291105817
H        2.2228057734   -1.8909787315   -5.1472454359
H        4.7863037676   -3.5892927031   -2.5967713554
H        6.0021668390   -2.3059106678   -2.2896728016
H        4.3304939871   -1.8516950337   -2.7825458205
H        2.7803020615    1.9324765173   -2.5942106828
H        2.2313768461    2.4964897498   -4.1910508284
24   
torsion grid (-150,)
C        4.8516093473    2.1772400172   -4.7164922651
C        3.9886927591    1.2982468507   -4.1296529155
C        5.4938719610   -0.2450716503   -4.7750575453
C        1.7451667239    0.4091743454   -3.6614673417
C        1.1091730133   -1.1979403155   -5.2765444157
C        4.8584161855   -2.6317487308   -2.8753645881
C        2.6493964468    1.6206710910   -3.5021195896
N        4.3432621178   -0.0299324909   -4.1454334032
N        6.1370640374   -1.3738915741   -5.0676655814
O        1.3127617530   -0.2652389431   -2.7438674909
O        6.7225054332   -3.7058236899   -4.3564002491
O        4.4476221451   -3.3101041090   -5.4030570658
O        1.5004482782    0.1556985778   -4.9669333126
S        6.2395966412    1.3008204988   -5.3500080505
S        5.5564264171   -2.8152511312   -4.5484309647
H        4.7453374027    3.2475604322   -4.8399008676
H        0.8357855455   -1.1888652121   -6.3326826433
H        0.2625910567   -1.5104750433   -4.6603382073
H        1.9664786297   -1.8587786792   -5.1182347558
H        4.6966788914   -3.6547352815   -2.5276756974
H        5.5972380348   -2.1281844166   -2.2488817372
H        3.9351048404   -2.0601799273   -2.9151366530
H        2.7371494433    1.8164471800   -2.4295975963
H        2.2010158170    2.4943228643   -3.9861548834
24   
torsion grid (-135,)
C        4.7575677305    2.0562160513   -5.0314702306
C        4.0852783107    1.1618501705   -4.2511427266
C        5.7026880348   -0.2609714464   -4.8929351558
C        1.7400834953    0.4233140663   -3.7361327168
C        0.5947226507   -0.7900041760   -5.4018138327
C        5.2570821192   -2.6766402782   -2.9538284343
C        2.8239726066    1.4559491580   -3.4815349771
N        4.5963572905   -0.1128416797   -4.1633489517
N        6.5031124563   -1.2966826875   -5.1086909972
O        1.1389066024   -0.1938555038   -2.8740856039
O        7.6136083703   -3.2345654645   -3.9570894970
O        5.5746433955   -3.6707328325   -5.3815845468
O        1.4935449763    0.2762191850   -5.0585684589
S        6.1649068022    1.2791673240   -5.7370823680
S        6.2938791474   -2.7745092909   -4.4457613357
H        4.4989358401    3.0854053527   -5.2456935642
H        0.5456064117   -0.7904344659   -6.4913692573
H       -0.3959911017   -0.6197393658   -4.9699560522
H        0.9873955838   -1.7434599898   -5.0401811966
H        5.3153880021   -3.6751263051   -2.5135260650
H        5.6749976413   -1.9279108293   -2.2800575617
H        4.2403128875   -2.4065790914   -3.2273179857
H        3.0065133386    1.4471499782   -2.4031638928
H        2.4385585138    2.4430417455   -3.7601303371
24   
torsion grid (-120,)
C        4.7666738913    2.1156689257   -5.0818700101
C        4.1298842823    1.2496328855   -4.2422682555
C        5.7544497948   -0.1773166787   -4.8568406503
C        1.7815430216    0.5449748070   -3.6629688344
C        0.5772187915   -0.6892640754   -5.2705962521
C        5.0576056951   -2.7103716424   -3.1443731992
C        2.8867302192    1.5648048050   -3.4527240032
N        4.6645172309   -0.0108891017   -4.1047153653
N        6.5672500360   -1.2063484017   -5.0443029420
O        1.1661370192   -0.0194057750   -2.7750488664
O        7.6466048290   -2.9392456651   -3.5514017627
O        6.0714807985   -3.6733085073   -5.3770643363
O        1.5268872946    0.3466247524   -4.9777728304
S        6.1667007606    1.3272062217   -5.7892084771
S        6.4236824542   -2.6722146740   -4.3431643470
H        4.4880309213    3.1310482789   -5.3335625881
H        0.5309597020   -0.7435505133   -6.3589613349
H       -0.4050689198   -0.4473954077   -4.8537144989
H        0.9171464041   -1.6420853475   -4.8571040747
H        5.0923937890   -3.7193100621   -2.7255263305
H        5.2237876914   -1.9537197173   -2.3793178077
H        4.1168277607   -2.5178805638   -3.6561986734
H        3.0921606226    1.5729771956   -2.3785368427
H        2.5039446449    2.5509622041   -3.7388216885
24   
torsion grid (-105,)
C        4.7811670285    2.1155559041   -5.1437293549
C        4.1581682327    1.2797991563   -4.2639705961
C        5.7943211068   -0.1551921711   -4.8269746347
C        1.8423447687    0.5497940556   -3.5947951513
C        0.6715887098   -0.8552139429   -5.0816302399
C        4.7972875021   -2.7967191865   -3.4768234690
C        2.9182167025    1.6146939973   -3.4775321854
N        4.7096088973    0.0337729786   -4.0735413559
N        6.6119840421   -1.1873617615   -4.9792524575
O        1.2471439905    0.0456964366   -2.6582775962
O        7.4203198534   -2.7717280254   -3.1482805908
O        6.4769525914   -3.6818431938   -5.2957968774
O        1.5882002217    0.2318645460   -4.8863428513
S        6.1853405410    1.3115305375   -5.8252517265
S        6.4366861216   -2.6360205456   -4.2477007622
H        4.4949722975    3.1190916203   -5.4318900799
H        0.6252184825   -1.0078785625   -6.1606411470
H       -0.3173750218   -0.6088157988   -4.6836601160
H        1.0420064126   -1.7560357328   -4.5855971281
H        4.7607147474   -3.8321343213   -3.1289612780
H        4.7051988032   -2.0870331783   -2.6581457305
H        4.0288825671   -2.6031732884   -4.2251532516
H        3.1384873568    1.7061565843   -2.4101062321
H        2.5007314808    2.5662077837   -3.8257912275
24   
torsion grid (-90,)
C        4.6730682372    1.8159925427   -4.5513068153
C        3.9535205354    0.7091263980   -4.2046227316
C        5.6667621569   -0.4085934041   -5.1328117729
C        1.5685046586    0.0311167101   -4.3548303285
C        0.6421157882   -2.0681367787   -4.9019451757
C        4.3801858016   -3.2075503064   -5.6232972342
C        2.6114817199    0.7357080965   -3.5085394881
N        4.4929562381   -0.5173080148   -4.5122778687
N        6.5061758843   -1.3199891707   -5.6138323494
O        0.9133968714    0.5491034370   -5.2422258553
O        6.6750941026   -3.5501657212   -4.3301274420
O        6.6917797692   -3.4964459950   -6.8427609332
O        1.4580279672   -1.2785562143   -4.0224205566
S        6.1629646372    1.3240044985   -5.3396558467
S        6.1792371433   -2.9225827108   -5.5777659115
H        4.4136115924    2.8567569394   -4.4063971448
H        0.7011634187   -3.0873834965   -4.5184220818
H        1.0342405942   -2.0236274559   -5.9210086024
H       -0.3923988827   -1.7124208359   -4.8987265188
H        4.2754460261   -4.2827185138   -5.7881871333
H        3.9338228610   -2.8821708390   -4.6872043174
H        3.9599464983   -2.6451279711   -6.4590699260
H        2.6875012171    0.2283883492   -2.5415014469
H        2.2869433796    1.7677700681   -3.3605798096
24   
torsion grid (-75,)
C        4.2578930540    1.5526634584   -5.0179349888
C        3.8408428848    0.5107951345   -4.2404978719
C        6.0413237459    0.1899113609   -3.9087977161
C        2.2910369569   -0.0611654665   -2.4363263279
C        3.0132159395   -1.5592091317   -0.7501853848
C        6.1857895426   -2.8482631159   -3.1929429463
C        2.4015614543    0.1467300824   -3.9370558638
N        4.8162261618   -0.2439010151   -3.6342132918
N        7.2335363003   -0.2414878347   -3.4923260117
O        2.0478781447    0.8163451041   -1.6277827511
O        6.8854993485   -1.3054206257   -1.1424584028
O        8.6696361851   -2.1356087411   -2.7067646594
O        2.5579523440   -1.3456803591   -2.1031445765
S        6.0156731771    1.6159499148   -5.0214267382
S        7.3107709525   -1.5739425895   -2.5390231619
H        3.6567114250    2.2853193242   -5.5408629079
H        3.0084211177   -2.6407279049   -0.6057205830
H        2.3495284698   -1.0702786259   -0.0333390903
H        4.0331966313   -1.1745518893   -0.6596528374
H        6.4036920442   -3.7467794289   -2.6110380206
H        5.1562733578   -2.5178438283   -3.0756372758
H        6.4301065650   -3.0068986802   -4.2453702446
H        1.7299545195    0.9519890510   -4.2406984248
H        2.1270047218   -0.7806833227   -4.4513271687
24   
torsion grid (-60,)
C        4.2276254828    1.5818978798   -4.9682369935
C        3.8098783396    0.5203350037   -4.2179021267
C        6.0099594285    0.1723390050   -3.9249325462
C        2.2817117168   -0.0517240931   -2.3999613758
C        3.0772100117   -1.5634631238   -0.7531183019
C        6.2860965699   -2.9104620126   -3.2390036261
C        2.3714055236    0.1646768259   -3.9017842183
N        4.7874325290   -0.2647655623   -3.6539451405
N        7.2057148507   -0.2970662800   -3.5484694277
O        2.0513828642    0.8233852830   -1.5845600328
O        6.5846760850   -1.2548801062   -1.1934951952
O        8.6377768701   -2.0228340235   -2.4356821870
O        2.5549489458   -1.3367944736   -2.0817666321
S        5.9847854843    1.6346251606   -4.9863005000
S        7.2381275582   -1.5500088197   -2.4940901269
H        3.6268439382    2.3321439613   -5.4660991587
H        2.9966136025   -2.6389132716   -0.5843811680
H        2.4973750050   -1.0125190180   -0.0092873670
H        4.1281384526   -1.2587073275   -0.7407922724
H        6.3708038446   -3.7547932780   -2.5509648817
H        5.2525757308   -2.5860808380   -3.3552892281
H        6.7421579953   -3.1526945690   -4.2010512775
H        1.7021989896    0.9766050201   -4.1925907658
H        2.0854342270   -0.7580462170   -4.4181949073
24   
torsion grid (-45,)
C        4.2613004419    1.6043663314   -4.9877310618
C        3.8125671843    0.5408698576   -4.2575752672
C        5.9985665660    0.0823768471   -4.0361795504
C        2.2870056426    0.0465183864   -2.4140057020
C        3.0196863216   -1.4897439758   -0.7604321712
C        6.3623746020   -3.0514273655   -3.2507914030
C        2.3663180827    0.2455171752   -3.9187978530
N        4.7661938165   -0.3100287721   -3.7495553814
N        7.1815929690   -0.4716370210   -3.7300421305
O        2.1115047403    0.9400419335   -1.6045831883
O        6.4257082822   -1.2479296017   -1.3357337379
O        8.6166917829   -1.9942556071   -2.3499811069
O        2.5017401773   -1.2467467742   -2.0882238694
S        6.0163298437    1.5800087701   -5.0455881864
S        7.2062615543   -1.6008722643   -2.5486164144
H        3.6828423438    2.3919495270   -5.4534285449
H        2.8727670689   -2.5559777616   -0.5775248359
H        2.4810134648   -0.8946018463   -0.0197148886
H        4.0871415224   -1.2499322464   -0.7629829959
H        6.3841803226   -3.8384138556   -2.4929980745
H        5.3387486941   -2.7557403436   -3.4855366046
H        6.9062502073   -3.3615087802   -4.1451828960
H        1.7262556026    1.0812267044   -4.2081255301
H        2.0383324757   -0.6695528487   -4.4233318845
24   
torsion grid (-30,)
C        4.2520041425    1.6542263767   -4.9687637577
C        3.7757484045    0.5833392022   -4.2657633373
C        5.9445783511    0.0362986515   -4.1025195868
C        2.2521301603    0.1342379918   -2.4072213855
C        2.9354776799   -1.4328288289   -0.7627720235
C        6.5389629688   -3.1655468388   -3.2240620271
C        2.3242905957    0.3364749218   -3.9118510263
N        4.7051267610   -0.3219621204   -3.8097915175
N        7.1101604751   -0.5829037529   -3.8507532786
O        2.1150795176    1.0310051571   -1.5935664755
O        6.2922226798   -1.2633813805   -1.4396828115
O        8.6165905989   -1.8278366611   -2.2723906518
O        2.4232892747   -1.1663628561   -2.0878441212
S        6.0014105389    1.5689120775   -5.0566838260
S        7.1890203310   -1.5950774775   -2.5756349593
H        3.6933735471    2.4724038998   -5.4052280100
H        2.7720243117   -2.4989466190   -0.5939278160
H        2.4049901892   -0.8387308559   -0.0151172382
H        4.0064379549   -1.2111884258   -0.7617142988
H        6.5924347648   -3.9091859152   -2.4248519880
H        5.5047858335   -2.9876517483   -3.5257028747
H        7.1538421329   -3.4661599819   -4.0745442367
H        1.7122813977    1.1966857052   -4.1900319135
H        1.9582803941   -0.5636765276   -4.4168214914
24   
torsion grid (-15,)
C        3.8063444148    1.0479983603   -5.6730724206
C        3.5849505025    0.4861591360   -4.4504579899
C        5.4533533488   -0.6722813605   -4.9119697077
C        2.8632606437    1.2901075707   -2.1569123043
C        4.3582813471    2.6605376485   -0.9574958966
C        9.0017969738   -0.7497699754   -4.7950739591
C        2.4366450037    0.8173780845   -3.5352992071
N        4.4861748057   -0.4619924277   -4.0278198469
N        6.4398630793   -1.5615536196   -4.6917733816
O        2.3710731421    0.9229157693   -1.1035870928
O        7.5743694779   -1.0562064439   -6.9855760673
O        8.1945565700   -3.1099503645   -5.6348374356
O        3.8441007061    2.2221981351   -2.2228171560
S        5.2410284226    0.3648930768   -6.4056339129
S        7.7192811963   -1.7112172912   -5.6574046052
H        3.2267213701    1.8175022429   -6.1690568904
H        5.1543104332    3.3677796571   -1.1950233690
H        4.7574003994    1.8123003304   -0.3954410379
H        3.5767151345    3.1457300148   -0.3647692494
H        9.9303802628   -0.8417999568   -5.3639101232
H        8.6778571277    0.2922690293   -4.7522813983
H        9.1178400539   -1.1617048055   -3.7914775991
H        1.8228431650    1.6086265361   -3.9819559681
H        1.7984456190   -0.0552989233   -3.3709737443
24   
torsion grid (0,)
C        3.7295415077    1.0123993128   -5.6575477476
C        3.5632113788    0.4620055248   -4.4211527222
C        5.4857537899   -0.5961205676   -4.8981399576
C        2.8489360971    1.2760246676   -2.1303593984
C        4.2945227323    2.7531587526   -0.9989249158
C        9.1391778708   -0.9217362862   -4.7220897905
C        2.4178847773    0.7482035950   -3.4873093588
N        4.5228404363   -0.4277838886   -3.9998444862
N        6.5219353479   -1.4264767973   -4.6832697737
O        2.4025667534    0.9072293957   -1.0572424088
O        7.6827599835   -0.7493894017   -6.9176882828
O        8.0847394133   -3.0262679102   -5.8863118603
O        3.7748816652    2.2585459313   -2.2407733665
S        5.1963907108    0.4097338180   -6.3982645805
S        7.7614877092   -1.5953133582   -5.6958701792
H        3.1012325192    1.7426788555   -6.1535275131
H        5.0447814875    3.4967410853   -1.2718383678
H        4.7529377633    1.9409934605   -0.4288079576
H        3.5021970347    3.2088716672   -0.3970941028
H       10.0537997715   -1.0487690963   -5.3065595905
H        8.9425758526    0.1354438755   -4.5342312668
H        9.1966966872   -1.4777526667   -3.7852278787
H        1.7500346410    1.4931480405   -3.9360885967
H        1.8343238022   -0.1550284595   -3.2884934484
24   
torsion grid (15,)
C        3.6818758069    0.9865252672   -5.6422958656
C        3.5690719740    0.4547939243   -4.3916083563
C        5.5298823432   -0.5188237635   -4.8897501863
C        2.8553637957    1.2768831359   -2.1028298854
C        4.2377672170    2.8523770878   -1.0267391686
C        9.2470554766   -1.1059140014   -4.7786143094
C        2.4279956287    0.7012755778   -3.4413128100
N        4.5785772114   -0.3797754609   -3.9739038066
N        6.6140648145   -1.2861226176   -4.6815806982
O        2.4494720212    0.9059402036   -1.0144180022
O        7.7644936104   -0.5256053335   -6.8937335894
O        7.9297955427   -2.9299364378   -6.1344841980
O        3.7249727716    2.3050154323   -2.2491176232
S        5.1667588826    0.4489488550   -6.3973507285
S        7.7814848821   -1.5019129349   -5.7702449990
H        3.0064708616    1.6717551866   -6.1405196652
H        4.9422403428    3.6292166471   -1.3275433500
H        4.7485536518    2.0780099607   -0.4486038474
H        3.4320132613    3.2773977823   -0.4202384460
H       10.1257545793   -1.3012521857   -5.3980439584
H        9.1966394937   -0.0534445382   -4.4947975737
H        9.2444360071   -1.7462519182   -3.8956013382
H        1.7150920907    1.4025324387   -3.8911756864
H        1.8949559110   -0.2263322629   -3.2148020503
24   
torsion grid (30,)
C        3.6562814897    0.9646326398   -5.6239431109
C        3.5775644745    0.4478953003   -4.3640340325
C        5.5849555671   -0.4275611950   -4.8570167446
C        2.8310613587    1.2692825477   -2.0867099516
C        4.1358550999    2.9330121851   -1.0471224873
C        9.3268104147   -1.2584475068   -4.7992613172
C        2.4286944760    0.6468850349   -3.4120214649
N        4.6315046482   -0.3254207327   -3.9385005229
N        6.7175141067   -1.1197150965   -4.6418771195
O        2.4515750455    0.8956544909   -0.9897067123
O        7.8944510083   -0.3067872918   -6.8215347886
O        7.7901622294   -2.7713120551   -6.3045341623
O        3.6433598712    2.3396342689   -2.2562892021
S        5.1681693938    0.5006879556   -6.3734427984
S        7.8184130375   -1.3796521866   -5.7920686481
H        2.9417252360    1.6018483740   -6.1309824736
H        4.7964838248    3.7404355996   -1.3662055344
H        4.6909011335    2.1958016857   -0.4612535323
H        3.3135227314    3.3251003985   -0.4406992840
H       10.1662410598   -1.4961351294   -5.4567225672
H        9.4078287210   -0.2412601668   -4.4136303993
H        9.2570303824   -1.9787168581   -3.9832434615
H        1.6749240426    1.2983475690   -3.8699640782
H        1.9503669934   -0.3051232094   -3.1655132149
24   
torsion grid (45,)
C        3.6402464306    0.9173227524   -5.6505499876
C        3.5996469390    0.4429397039   -4.3717528653
C        5.6374053897   -0.3605427957   -4.8584149684
C        2.8356287931    1.3030407623   -2.1147975561
C        4.0706181122    3.0571424529   -1.1401198152
C        9.3540232469   -1.4678886077   -4.8510733437
C        2.4504828079    0.6222704892   -3.4162422882
N        4.6916125223   -0.2668365873   -3.9316940022
N        6.8068621174   -0.9867071613   -4.6387611283
O        2.4845111886    0.9444357342   -1.0034652034
O        8.0664783809   -0.1556739128   -6.7646863868
O        7.6259302881   -2.6168297012   -6.4797132772
O        3.5940685169    2.4050396038   -2.3252936406
S        5.1653467255    0.4985735328   -6.3978397570
S        7.8470420802   -1.2978398235   -5.8350333079
H        2.8894244879    1.4977632860   -6.1729168730
H        4.6890863732    3.8845447414   -1.4908525015
H        4.6659266203    2.3647472307   -0.5393266393
H        3.2369978593    3.4283649231   -0.5359794135
H       10.1535974499   -1.7470567967   -5.5408038464
H        9.5666061841   -0.5107859268   -4.3733176053
H        9.1933894778   -2.2476546229   -4.1058823757
H        1.6660287906    1.2260789645   -3.8877411781
H        2.0155888414   -0.3411987439   -3.1361708360
24   
torsion grid (60,)
C        4.9457979007    2.4987160777   -3.8873159472
C        4.0040898315    1.6607879148   -4.4145697312
C        5.3995760957    0.0472008980   -3.7290395143
C        1.6240841623    1.1227254110   -4.5254096287
C        1.0569836835   -1.1715592017   -4.7244869686
C        6.5177424863   -3.6643974223   -3.4876443703
C        2.6871651526    2.0810816069   -5.0370413977
N        4.2548198415    0.3121363420   -4.3327007090
N        5.9608736807   -1.1295298468   -3.4169240166
O        0.9964311471    1.2721948269   -3.4911190273
O        5.1797662066   -2.5484180894   -5.4856215326
O        4.0090877833   -2.8677983065   -3.2815705880
O        1.5140993463    0.0528650732   -5.3395961132
S        6.2766828513    1.5496543239   -3.2381478090
S        5.2495908855   -2.4815422028   -4.0059189908
H        4.9213326518    3.5781835060   -3.8100189737
H        0.8325171778   -1.8484774616   -5.5502236770
H        0.1671713514   -0.9920408654   -4.1160505317
H        1.8734193034   -1.5784353199   -4.1207231612
H        6.1655565472   -4.6535413706   -3.7878143593
H        7.4535980513   -3.4146211115   -3.9889037844
H        6.6273762038   -3.6024291887   -2.4043711630
H        2.4325277669    3.1024140502   -4.7463237731
H        2.7445264594    2.0068530675   -6.1280890649
24   
torsion grid (75,)
C        4.9086292554    2.4918707894   -3.8551962663
C        3.9902393166    1.6530337911   -4.4202285459
C        5.4508879122    0.0538668851   -3.8485426196
C        1.6167544758    1.0794664652   -4.4754384986
C        1.0650219065   -1.2158307757   -4.7153751615
C        6.4626850689   -3.6661295358   -3.3841960465
C        2.6505239065    2.0645337222   -4.9967258890
N        4.2922280506    0.3119054197   -4.4283966184
N        6.0668315692   -1.1151282043   -3.6216349506
O        1.0208938559    1.1952717648   -3.4181311333
O        5.3513474404   -2.7034902431   -5.5778977772
O        3.9961232009   -2.7263315635   -3.4522037638
O        1.4950330120    0.0284894352   -5.3115731424
S        6.2787382708    1.5551161206   -3.2740833496
S        5.3055119678   -2.4793964580   -4.1120418979
H        4.8503715541    3.5644627929   -3.7213959200
H        0.8007948137   -1.8654779198   -5.5515397196
H        0.2038109835   -1.0553517698   -4.0621659033
H        1.9094856778   -1.6398421759   -4.1639319357
H        6.0961750118   -4.6610857548   -3.6455475268
H        7.4517910434   -3.4919435859   -3.8094195218
H        6.4729252460   -3.5255717922   -2.3028364128
H        2.3887054485    3.0751410505   -4.6765505778
H        2.6783863461    2.0139478840   -6.0902449091
24   
torsion grid (90,)
C        4.9062342999    2.4913494282   -3.8286862608
C        3.9899106975    1.6693763074   -4.4212082434
C        5.4965603876    0.0696570515   -3.9875273363
C        1.6188137372    1.0790715826   -4.4121802421
C        1.0553425991   -1.2047675747   -4.7178860385
C        6.4389516668   -3.6048212390   -3.2760513809
C        2.6274846420    2.0894758286   -4.9338650234
N        4.3202734373    0.3384530920   -4.5247235028
N        6.1530038763   -1.0911162592   -3.8540093324
O        1.0626357300    1.1517513737   -3.3296123327
O        5.5275144022   -2.8859427294   -5.6383918131
O        4.0171321818   -2.6192683667   -3.6314128860
O        1.4693328646    0.0598710779   -5.2821335642
S        6.3076453168    1.5515956475   -3.3378103037
S        5.3753092460   -2.4815657618   -4.2188043527
H        4.8351820039    3.5550690137   -3.6409350807
H        0.7789853148   -1.8281983114   -5.5699898164
H        0.2048078952   -1.0691467264   -4.0452095467
H        1.9120572727   -1.6417691323   -4.1967832675
H        6.0747038369   -4.6170165117   -3.4650177424
H        7.4644343729   -3.4885318217   -3.6287219035
H        6.3605431779   -3.3530624186   -2.2177035050
H        2.3715084221    3.0851916127   -4.5659350620
H        2.6148326975    2.0798089039   -6.0287626771
24   
torsion grid (105,)
C        4.9205403994    2.4252482517   -3.8418880468
C        3.9792494330    1.6293684095   -4.4305832316
C        5.5054877924    0.0140580107   -4.1495172755
C        1.6098306841    1.0318467923   -4.3641788048
C        1.0098304326   -1.2222529762   -4.7888863799
C        6.3720139406   -3.5797376677   -3.2083231062
C        2.5974674087    2.0722970006   -4.8660312255
N        4.3060997538    0.3063369673   -4.6183874194
N        6.1819238448   -1.1418209506   -4.1129785416
O        1.1020433611    1.0341523433   -3.2558608043
O        5.6869166701   -3.1247561766   -5.7016431215
O        4.0066212936   -2.6246458391   -3.8792987007
O        1.4169596192    0.0705610079   -5.2902611546
S        6.3421959160    1.4669385917   -3.4605250807
S        5.4102382492   -2.5590599860   -4.3584916527
H        4.8588648537    3.4801578675   -3.6065816052
H        0.6890331319   -1.7881191809   -5.6654150834
H        0.1901023039   -1.1198986734   -4.0735060175
H        1.8818586216   -1.6983993226   -4.3317145873
H        6.0177560133   -4.6072856096   -3.3184563934
H        7.4259020962   -3.5011825490   -3.4781102586
H        6.2023292197   -3.2146881661   -2.1944828650
H        2.3541829538    3.0453522365   -4.4342677919
H        2.5431051661    2.1238814438   -5.9585106134
24   
torsion grid (120,)
C        4.9497422659    2.3864358921   -3.8462063551
C        3.9844471704    1.6065093616   -4.4172613805
C        5.5266741481   -0.0113043788   -4.2695886694
C        1.6207659460    0.9910995067   -4.2914708985
C        0.9865753591   -1.2312619748   -4.8166927320
C        6.2950336268   -3.4866437333   -3.0988871211
C        2.5846223992    2.0608546706   -4.7768216052
N        4.3054499983    0.2924223689   -4.6685518579
N        6.2191042167   -1.1570856282   -4.3131896542
O        1.1623928840    0.9287210708   -3.1636097750
O        5.9309997009   -3.2988049267   -5.6914610482
O        4.0334062332   -2.6424452808   -4.1526723834
O        1.3847478563    0.0843338661   -5.2618437987
S        6.3900196027    1.4228670626   -3.5672011421
S        5.4835735110   -2.6023796549   -4.4620049859
H        4.8977431806    3.4345057230   -3.5796728488
H        0.6294139212   -1.7468872325   -5.7100161602
H        0.1944756413   -1.1636194533   -4.0668988431
H        1.8710877539   -1.7358846963   -4.4183943489
H        5.9580456571   -4.5253530808   -3.1384200032
H        7.3742017896   -3.4222306427   -3.2435956778
H        6.0006403744   -3.0173406007   -2.1588086214
H        2.3537663697    3.0096386169   -4.2878475851
H        2.4874997698    2.1673075937   -5.8623581828
24   
torsion grid (135,)
C        5.0042127358    2.3798127524   -4.9131533977
C        4.0870826621    1.6030195384   -4.2632936514
C        5.6619914392    0.0148971270   -4.4331542920
C        1.7570581455    0.8363880720   -3.9212487161
C        1.2953902833   -1.0329096500   -5.3012509800
C        5.9525826168   -3.2347731189   -2.7694966280
C        2.7021487471    2.0245707567   -3.8294459317
N        4.4603166883    0.3108460228   -3.9729551082
N        6.3853542917   -1.1146751175   -4.3585572601
O        1.1151921765    0.3862807793   -2.9884508641
O        6.4743086686   -3.4357360918   -5.3539776734
O        4.2171067999   -2.5896253464   -4.6542602208
O        1.7269942440    0.3401167617   -5.1753218641
S        6.4437128171    1.4367615839   -5.2400628805
S        5.6861550042   -2.5771141366   -4.4398701223
H        4.9157207433    3.4181917823   -5.2081904895
H        1.1736641258   -1.2017565828   -6.3726126464
H        0.3506258983   -1.1916970563   -4.7751338156
H        2.0845255874   -1.6779408183   -4.9064163898
H        5.5922856769   -4.2663249161   -2.7536889247
H        7.0210760687   -3.1937560218   -2.5517633466
H        5.3870893233   -2.6144879968   -2.0717578114
H        2.6859708896    2.3606482770   -2.7885924586
H        2.3368828755    2.8388793541   -4.4645571705
24   
torsion grid (150,)
C        4.9123455241    2.3064617847   -4.9626919308
C        4.0552031007    1.5097721002   -4.2575693986
C        5.6470451781   -0.0448696025   -4.5451873042
C        1.7591542429    0.6964321617   -3.8315837018
C        1.2424656565   -1.1149622385   -5.2695087718
C        5.5774768273   -3.0811301776   -2.7687895203
C        2.6890006937    1.8970714345   -3.7412583484
N        4.4726117716    0.2239905796   -4.0013883184
N        6.3859485048   -1.1674686460   -4.5182580368
O        1.1814574667    0.1906936912   -2.8853154004
O        6.5350225300   -3.5834631494   -5.1965331653
O        4.2333550803   -2.6056377778   -4.9866883974
O        1.6665215869    0.2560818172   -5.1031680911
S        6.3455234564    1.3926249501   -5.3893272720
S        5.6441783764   -2.6140788846   -4.5219241078
H        4.7822861325    3.3418114285   -5.2525807262
H        1.0570052686   -1.2337364762   -6.3384020329
H        0.3337525220   -1.3115373163   -4.6949562185
H        2.0614545353   -1.7676955388   -4.9564946571
H        5.1438518647   -4.0818515919   -2.6998807624
H        6.5944431882   -3.0701162536   -2.3726254940
H        4.9489794887   -2.3478360765   -2.2596654639
H        2.7197586058    2.1949019469   -2.6891800583
H        2.2833000474    2.7273132825   -4.3291235928
24   
torsion grid (165,)
C        4.8938384243    2.2929585264   -4.9310258818
C        4.0717523136    1.4474044860   -4.2423960147
C        5.6819025149   -0.0615623706   -4.6564699008
C        1.8151766784    0.5566694646   -3.7804316122
C        1.2920931971   -1.1966864989   -5.2869785149
C        5.4017564276   -2.8543741232   -2.8111499020
C        2.7137389875    1.7791284865   -3.6682573309
N        4.5173655213    0.1577799217   -4.0659245167
N        6.4330180134   -1.1738357644   -4.7124734076
O        1.2982321660   -0.0152673870   -2.8366376059
O        6.6270428592   -3.6515106502   -5.0378796726
O        4.3258450225   -2.6592671840   -5.2089636544
O        1.6776227193    0.1786842578   -5.0679058226
S        6.3317660660    1.4274103982   -5.4430938304
S        5.6757020820   -2.6129152186   -4.5898357847
H        4.7359197893    3.3366426160   -5.1724872576
H        1.0527208541   -1.2653836706   -6.3495469707
H        0.4232031825   -1.4566728025   -4.6772881238
H        2.1487400354   -1.8348029669   -5.0535358619
H        4.9147717381   -3.8230113591   -2.6749129539
H        6.3716364785   -2.8333063084   -2.3106240386
H        4.7595315495   -2.0406970247   -2.4690143398
H        2.7718350409    2.0342941868   -2.6061559587
H        2.2684220132    2.6214244728   -4.2081129198
24   
torsion grid (180,)
C        4.8677840297    2.2307490409   -4.9078283774
C        4.0346780735    1.3621200376   -4.2638320575
C        5.6261884733   -0.1470405666   -4.7550067351
C        1.8051999893    0.4337693962   -3.7765838907
C        1.2766836837   -1.3025561630   -5.2995699533
C        5.2214621481   -2.7130101570   -2.8236611700
C        2.6768047783    1.6762111603   -3.6754548553
N        4.4600749602    0.0582334014   -4.1585815413
N        6.3541700110   -1.2646486752   -4.8913548421
O        1.3518653506   -0.1774554924   -2.8249492455
O        6.6211937418   -3.7535022073   -4.8155151328
O        4.3160746966   -2.8562488446   -5.3007922415
O        1.6169040107    0.0829677052   -5.0659309438
S        6.2999952294    1.3738210507   -5.4570394067
S        5.6149735307   -2.6931285088   -4.5977302302
H        4.7223909612    3.2859366017   -5.1020277512
H        0.9953975423   -1.3587356848   -6.3525669215
H        0.4447579091   -1.6093989972   -4.6608795292
H        2.1652938575   -1.9129765858   -5.1145428240
H        4.7472866534   -3.6742123790   -2.6121115889
H        6.1574890236   -2.6145611449   -2.2704404909
H        4.5443399750   -1.8833130122   -2.6187413168
H        2.7418021387    1.9367571429   -2.6150939523
H        2.2119847503    2.5076219079   -4.2153462908
