19   
torsion grid (-165,)
C        2.5089776599    0.3791015855   -0.5998884152
C        1.5540564115    0.5705684363   -1.6589288782
C        0.7437250995   -0.5287012848   -1.8437709701
C        2.4037094428   -0.8521995590   -0.0166770357
C        1.2097638490    3.1551660647   -1.7027698448
C        2.4837154225    2.8903161145   -2.4633228378
C        1.4009033455    1.8292948724   -2.4348741704
C       -0.3833577155   -0.7024782495   -2.8245836370
S        1.1488055024   -1.8154650853   -0.7316605364
Br       3.4631233409   -1.5285608334    1.4017022602
H        3.2404198737    1.1150290894   -0.2858857339
H        1.2464783861    3.1221946679   -0.6179140166
H        0.4964246817    3.8640973657   -2.1130939177
H        2.6435030002    3.4164609865   -3.3999909914
H        3.3938457676    2.7078977177   -1.9003562438
H        0.8282017323    1.7246196989   -3.3515432832
H       -0.8197788716   -1.7029404886   -2.7626905889
H       -1.1855103503    0.0202106906   -2.6371254464
H       -0.0380160908   -0.5598739924   -3.8546509757
19   
torsion grid (-150,)
C        2.0430674370   -0.6447112172   -1.9221099622
C        1.1704935658    0.2614189768   -2.6214591498
C        0.1605246739   -0.3913671459   -3.2936059246
C        1.6763712258   -1.9509340121   -2.0806139306
C        1.7193927668    2.4609317559   -1.3264369939
C        2.6886844415    2.3894102702   -2.4788989362
C        1.3200542912    1.7395946731   -2.6066825959
C       -0.9445158781    0.2011472642   -4.1252410487
S        0.2673342679   -2.1241750419   -3.0805044150
Br       2.5402197162   -3.4683045943   -1.3438681547
H        2.9014206125   -0.3438219335   -1.3316888449
H        1.9133604404    1.8456142795   -0.4528624962
H        1.2410017830    3.4118564939   -1.1105327183
H        2.8733991499    3.2910598097   -3.0554752272
H        3.5472881666    1.7308307365   -2.3895339495
H        0.6103101211    2.2693047337   -3.2343499518
H       -1.5786039210   -0.5749228504   -4.5620012433
H       -1.5890724856    0.8515987947   -3.5231907805
H       -0.5420687351    0.7982592770   -4.9510075180
19   
torsion grid (-135,)
C        1.9483295182   -0.6626952624   -1.8591411233
C        1.1016552308    0.2608343736   -2.5668228410
C        0.1527937018   -0.3749852694   -3.3375294535
C        1.6195511932   -1.9658318217   -2.1040453155
C        1.8492706083    2.4256741494   -1.2934140181
C        2.6215927723    2.3836403706   -2.5887010854
C        1.2444551352    1.7385083146   -2.5052327998
C       -0.9018999197    0.2373834251   -4.2186684177
S        0.2790088591   -2.1136327259   -3.1976634716
Br       2.4633358079   -3.5024251101   -1.3840648155
H        2.7622685171   -0.3765662340   -1.2022337155
H        2.1834061594    1.7994209773   -0.4718429398
H        1.4126383105    3.3709972450   -0.9847035693
H        2.7213771578    3.2989879215   -3.1647289425
H        3.4730793709    1.7126620296   -2.6541565228
H        0.4463190771    2.2858897772   -2.9970579632
H       -1.4739820621   -0.5271740264   -4.7509135546
H       -1.6135856092    0.8316208627   -3.6341114887
H       -0.4536066781    0.8952059973   -4.9712619186
19   
torsion grid (-120,)
C        1.6185999284   -0.7721377987   -1.9647434258
C        0.9121402131    0.2940940133   -2.6230328434
C       -0.0221905277   -0.1693765016   -3.5239878484
C        1.2013821159   -2.0074851221   -2.3740400588
C        2.0222448694    2.2518004670   -1.2618799512
C        2.5724971501    2.3100878181   -2.6665199969
C        1.1799179738    1.7423795952   -2.4135148584
C       -0.9438167292    0.6304529500   -4.4031310260
S       -0.0583678971   -1.9163347709   -3.5652027255
Br       1.8486076604   -3.6822280802   -1.7674823174
H        2.3942836642   -0.6328322207   -1.2206300691
H        2.4462416430    1.5258657127   -0.5754243410
H        1.7142852119    3.1801909926   -0.7901292206
H        2.6487092731    3.2764557410   -3.1565571234
H        3.3471496253    1.5986625737   -2.9369932435
H        0.3610447996    2.3927899716   -2.7071215682
H       -1.4683372388   -0.0058210075   -5.1209424921
H       -1.7039851638    1.1557661618   -3.8128821453
H       -0.3851634798    1.3799652479   -4.9736141113
19   
torsion grid (-105,)
C        1.5256644455   -0.8154516625   -1.8950760342
C        0.8828651402    0.2745657761   -2.5768659789
C        0.0087081666   -0.1544509843   -3.5528155813
C        1.1234859921   -2.0344790919   -2.3663231257
C        2.1501572937    2.1962018866   -1.3010239886
C        2.4251015003    2.3778361909   -2.7748205423
C        1.1293918162    1.7200243293   -2.3119033193
C       -0.8304597526    0.6891510643   -4.4709899916
S       -0.0457114388   -1.8973664137   -3.6424468765
Br       1.7036180154   -3.7332473251   -1.7591459030
H        2.2414984504   -0.7039063506   -1.0893603063
H        2.7318559831    1.4532959376   -0.7651361174
H        1.8995565882    3.0728374945   -0.7112127797
H        2.3691908111    3.3772288835   -3.1968740556
H        3.1641794449    1.7280399035   -3.2339951120
H        0.2451419991    2.3454881542   -2.4034774409
H       -1.2940595667    0.0913099511   -5.2601706197
H       -1.6357051531    1.1948282879   -3.9245234764
H       -0.2188400873    1.4599325077   -4.9518091209
19   
torsion grid (-90,)
C        0.5420805304   -0.7559509399   -1.6743318615
C        0.3153842571    0.4264709947   -2.4610947425
C       -0.5190276555    0.1977016908   -3.5337908298
C       -0.1148451552   -1.8466436297   -2.1707721328
C        2.1078221643    1.9227993425   -1.2678957277
C        2.2329696642    2.1858319024   -2.7500046818
C        0.8930355293    1.7699085896   -2.1561738375
C       -0.9932722184    1.1818232234   -4.5633981547
S       -1.0345135650   -1.4710952946   -3.5966998664
Br      -0.1011006979   -3.6037950586   -1.4612092694
H        1.1504787713   -0.7872537087   -0.7782466892
H        2.5759075490    1.0242497867   -0.8784917922
H        2.1341033695    2.7700950375   -0.5893058499
H        2.3458566838    3.2120309027   -3.0881417757
H        2.7547526238    1.4461741701   -3.3498206367
H        0.1604905738    2.5699183478   -2.0762442816
H       -1.0078437056    0.7447311765   -5.5668886422
H       -2.0053326673    1.5436388014   -4.3449746040
H       -0.3237216028    2.0456117104   -4.5848993392
19   
torsion grid (-75,)
C        0.3858660419   -0.7253483836   -1.5560796253
C        0.2572171140    0.4383583310   -2.3914674995
C       -0.5003618607    0.2032835367   -3.5180180045
C       -0.2665614575   -1.8105696193   -2.0690389518
C        2.1894717949    1.8628841842   -1.3637462892
C        2.0653877825    2.2838417344   -2.8097453651
C        0.8474886700    1.7702716581   -2.0575916792
C       -0.8762393865    1.1722231074   -4.6007279239
S       -1.0604431266   -1.4518779808   -3.5739947191
Br      -0.3532462674   -3.5491291900   -1.3198322749
H        0.9354051505   -0.7434494193   -0.6218648537
H        2.7162748470    0.9358722393   -1.1580125879
H        2.3223484731    2.6342348688   -0.6110893134
H        2.1112305683    3.3430794218   -3.0465576175
H        2.4935562612    1.6285948900   -3.5625660577
H        0.1238629751    2.5329508481   -1.7759971068
H       -0.8198406477    0.7156434694   -5.5940959339
H       -1.8966231102    1.5514501344   -4.4677860987
H       -0.1957622775    2.0271793675   -4.5815969665
19   
torsion grid (-60,)
C        1.1127979090   -1.0799646168   -2.3216780690
C        0.7347560855    0.2231611473   -2.8024085401
C        0.0608219458    0.1728665364   -4.0028240502
C        0.7215619143   -2.0813628752   -3.1628919673
C        2.4536822980    1.7336831816   -1.5518633265
C        1.8970684287    2.5679833108   -2.6841636171
C        1.0477393968    1.4791392486   -2.0547635022
C       -0.5339988249    1.2995314919   -4.7966783186
S       -0.1173659808   -1.4763881462   -4.5615906759
Br       1.0236761797   -3.9395741811   -2.9456957109
H        1.6553353522   -1.2473350023   -1.3978959520
H        3.2139957324    0.9991530388   -1.8008850519
H        2.5721602124    2.1978494057   -0.5772718521
H        1.6346970652    3.6028479319   -2.4837448342
H        2.2894375347    2.3812794835   -3.6793678827
H        0.2516359402    1.8333225248   -1.4017154737
H       -0.2828589778    1.2259697105   -5.8601398773
H       -1.6271725145    1.3133705026   -4.7149584714
H       -0.1595792142    2.2546345338   -4.4231117150
19   
torsion grid (-45,)
C        0.0903318993   -0.6695362167   -1.4270513038
C        0.1262060819    0.4681652428   -2.3097703541
C       -0.5122192192    0.2320577963   -3.5070860077
C       -0.5658420107   -1.7350562535   -1.9712362291
C        2.3146550037    1.7405129490   -1.6788323179
C        1.7461692237    2.4531105537   -2.8859437455
C        0.8178170158    1.7363163462   -1.9274072378
C       -0.7109202029    1.1507432118   -4.6798008160
S       -1.1631542642   -1.3927535243   -3.5684986370
Br      -0.8433418257   -3.4338746581   -1.1782578655
H        0.5441610965   -0.6812966298   -0.4421384713
H        2.8497396950    0.8114412136   -1.8517924288
H        2.6924957187    2.3379774733   -0.8543276769
H        1.7386448265    3.5392188968   -2.8901987271
H        1.9193976856    1.9983290440   -3.8559465020
H        0.2441168559    2.3834571059   -1.2653009073
H        0.0082405169    0.9468168782   -5.4823218164
H       -1.7147599950    1.0454649138   -5.1030344844
H       -0.5849930504    2.1896797933   -4.3700144124
19   
torsion grid (-30,)
C        0.0889142812   -0.7244253345   -1.4611668718
C        0.1636060517    0.4232036164   -2.3303650051
C       -0.4115351796    0.1934734696   -3.5611794970
C       -0.5350850564   -1.7874548835   -2.0452466734
C        2.3819029760    1.7210327982   -1.8408455091
C        1.6170039564    2.5767435114   -2.8267247991
C        0.8644545570    1.6636512292   -1.8830481061
C       -0.5844079709    1.1133540001   -4.7391396263
S       -1.0531983784   -1.4339709573   -3.6661950056
Br      -0.8443199092   -3.4932674021   -1.2795791615
H        0.4953022228   -0.7442667706   -0.4556954623
H        2.9191409105    0.8640943250   -2.2361426637
H        2.8503118520    2.2002349472   -0.9860801551
H        1.5612445325    3.6465687171   -2.6482480264
H        1.6844506241    2.2988096018   -3.8722153727
H        0.3751367358    2.1700641466   -1.0521397911
H        0.2589942551    1.0483634185   -5.4370025614
H       -1.4914655321    0.8687493064   -5.2998840941
H       -0.6691591938    2.1494088572   -4.4055515778
19   
torsion grid (-15,)
C        0.0723488754   -0.7750503054   -1.4879739468
C        0.1996471420    0.3737748136   -2.3503480013
C       -0.3307279779    0.1516214949   -3.6034515538
C       -0.5448255473   -1.8289266338   -2.0952989263
C        2.4243589959    1.7243727001   -2.0206113046
C        1.4866175016    2.6794940621   -2.7246912571
C        0.9193871204    1.5820655285   -1.8502584287
C       -0.4548310408    1.0625777322   -4.7960424592
S       -0.9917083622   -1.4666419720   -3.7333759470
Br      -0.9133841817   -3.5276506596   -1.3401330844
H        0.4373132801   -0.8017812424   -0.4667400257
H        2.9206482400    0.9742251938   -2.6290631459
H        3.0029091867    2.0837805800   -1.1745375486
H        1.4160076612    3.6977189440   -2.3536242538
H        1.4107721194    2.5916093481   -3.8009208617
H        0.5507490194    1.9256133799   -0.8851773218
H        0.4818572745    1.1288149760   -5.3617678340
H       -1.2241838380    0.7022314095   -5.4849294694
H       -0.7376274540    2.0712747996   -4.4860006905
19   
torsion grid (0,)
C        0.0478754349   -0.8427998741   -1.5203882153
C        0.2469444085    0.3046728584   -2.3699890697
C       -0.2575675193    0.1088574727   -3.6392673734
C       -0.5914795882   -1.8701112632   -2.1513669770
C        2.4291177437    1.7585206061   -2.2244407140
C        1.3408465740    2.7417836069   -2.5858032952
C        0.9854322358    1.4812549573   -1.8244878531
C       -0.3004775097    1.0179884719   -4.8398434889
S       -0.9743006968   -1.4819242500   -3.7975005036
Br      -1.0517838348   -3.5539988586   -1.4137910278
H        0.3768632664   -0.8888532884   -0.4876123519
H        2.8367759752    1.1458427397   -3.0231554592
H        3.1369873723    2.0207213576   -1.4434876327
H        1.2928122272    3.6757348642   -2.0334892659
H        1.0667692232    2.8314921460   -3.6283522838
H        0.7805070485    1.6453064227   -0.7689102781
H        0.7029664684    1.2476019246   -5.2143467361
H       -0.8518646216    0.5535063660   -5.6621210611
H       -0.8014486016    1.9615092905   -4.6039372937
19   
torsion grid (15,)
C        0.0305096803   -0.9393756518   -1.5867692524
C        0.3192955911    0.2083597273   -2.4082754536
C       -0.1599928297    0.0631174160   -3.6949807218
C       -0.6482565828   -1.9180319692   -2.2543904667
C        2.4008164151    1.8187174137   -2.4058057836
C        1.2013987214    2.7336817662   -2.4261519594
C        1.0759583907    1.3503871364   -1.8161419347
C       -0.1160937170    0.9930717661   -4.8796433673
S       -0.9590119364   -1.4811592767   -3.9025390367
Br      -1.2230286018   -3.5850811352   -1.5606207966
H        0.3236489891   -1.0223890408   -0.5455712744
H        2.7075093228    1.3606074481   -3.3414024539
H        3.2150281942    2.0394166963   -1.7217775569
H        1.1890314955    3.5739521839   -1.7380111156
H        0.7212597700    2.9344857267   -3.3751247003
H        1.0495342919    1.3444320830   -0.7296445935
H        0.8875138297    1.3968957806   -5.0404373448
H       -0.4022140617    0.4715440764   -5.7974160950
H       -0.8062457624    1.8348519528   -4.7557805562
19   
torsion grid (30,)
C       -0.0103142724   -0.9850916838   -1.6515607682
C        0.3691580017    0.1426375846   -2.4637381467
C       -0.0814582695    0.0236064737   -3.7640045070
C       -0.7342558490   -1.9187849090   -2.3358250291
C        2.3708433204    1.8830615472   -2.5329713272
C        1.1154512353    2.6908055478   -2.3032718939
C        1.1728440016    1.2416525651   -1.8520047135
C        0.0158988330    0.9617411096   -4.9385772670
S       -0.9759326000   -1.4650464974   -3.9910961709
Br      -1.4232115940   -3.5490921741   -1.6594554889
H        0.2522397155   -1.0870912315   -0.6039755048
H        2.6054072470    1.5647896335   -3.5433219252
H        3.2414509966    2.0952601747   -1.9193149329
H        1.1297074387    3.4549634547   -1.5316183558
H        0.4954241717    2.9326174771   -3.1588160010
H        1.2886732571    1.1148215250   -0.7790818631
H        0.9659662880    1.4987003424   -4.9515950899
H       -0.0582337824    0.4168048691   -5.8844234967
H       -0.7905774019    1.7045133938   -4.9262216618
19   
torsion grid (45,)
C       -0.2473429107   -0.9772772234   -1.8119089298
C        0.2713485903    0.1262302547   -2.5792466519
C       -0.1228559403    0.0724874352   -3.9019755000
C       -1.0070621955   -1.8351243097   -2.5542224437
C        2.1798453100    1.9802537739   -2.5958999646
C        0.9224431452    2.6480753136   -2.0944347270
C        1.1146729161    1.1521984015   -1.8980882749
C        0.2108423040    0.9576823522   -5.0744036583
S       -1.1240561806   -1.3314597958   -4.2085045163
Br      -1.8829267181   -3.4013347840   -1.9460706248
H       -0.0590205737   -1.1142004138   -0.7523884078
H        2.3065498557    1.8533862788   -3.6646671598
H        3.1051947230    2.1564327586   -2.0551828857
H        0.9879277985    3.2832889058   -1.2159383733
H        0.1799332430    2.9653379752   -2.8193328973
H        1.3683074951    0.8659845618   -0.8810832894
H        1.1717016509    0.6819175875   -5.5247139911
H       -0.5497580927    0.8770442438   -5.8566515040
H        0.2642439629    2.0094172169   -4.7866938717
19   
torsion grid (60,)
C       -0.1969720771   -0.9409259717   -1.7494945362
C        0.3696331023    0.0980865204   -2.5712979445
C       -0.0323149790   -0.0009835605   -3.8882755254
C       -1.0054208413   -1.7927132751   -2.4457015542
C        2.1339069654    2.1116658165   -2.6750922391
C        0.9047464591    2.6001833419   -1.9470728600
C        1.2565571482    1.1179751248   -1.9389952450
C        0.3108093984    0.8356673221   -5.0933457577
S       -1.1091259959   -1.3620923140   -4.1215438674
Br      -1.9494148501   -3.2862721953   -1.7609431264
H       -0.0068567714   -1.0362905526   -0.6857005431
H        2.1276274258    2.1197061139   -3.7572835330
H        3.1052379885    2.3223164525   -2.2371204879
H        1.0280052250    3.1614459694   -1.0254932737
H        0.0461963027    2.8931778467   -2.5441955198
H        1.6787845120    0.7690071440   -1.0000597152
H        1.3488581953    0.6811890322   -5.4071172996
H       -0.3271271492    0.5780861183   -5.9434476529
H        0.1694943653    1.9028703594   -4.8984119018
19   
torsion grid (75,)
C       -0.5435345771   -0.8049928136   -1.9021779258
C        0.2238524644    0.1215105179   -2.6968851431
C       -0.1260936423    0.0810462098   -4.0309529359
C       -1.4455447032   -1.5182074231   -2.6366538913
C        2.0010521052    2.1235508509   -2.6655042995
C        0.8684615504    2.4733220487   -1.7330642612
C        1.2051764752    1.0119007326   -2.0103437638
C        0.4107314229    0.8330648815   -5.2209103274
S       -1.3968804503   -1.0910172343   -4.3168030932
Br      -2.6527488109   -2.8328791354   -1.9997130488
H       -0.4222887749   -0.9192269913   -0.8301501363
H        1.8669193139    2.3240600862   -3.7198973377
H        3.0179888110    2.2694625608   -2.3130175601
H        1.0994138055    2.8756913286   -0.7509084737
H       -0.0488963870    2.8501333658   -2.1757567070
H        1.7239462574    0.5138535036   -1.1943880389
H        1.4965867345    0.7265900133   -5.2977259189
H       -0.0204671616    0.4517112342   -6.1507290599
H        0.1742358248    1.9016587130   -5.1707283467
19   
torsion grid (90,)
C       -0.6643705686   -0.6566163021   -1.9395814516
C        0.2043386314    0.1641363560   -2.7471737530
C       -0.1226146831    0.1175915320   -4.0856734843
C       -1.6177206264   -1.3002541310   -2.6722519122
C        1.8696742051    2.2336082700   -2.7004019437
C        0.8991143943    2.3846808494   -1.5576143927
C        1.2492555557    0.9963012552   -2.0804082183
C        0.5242043316    0.7673270593   -5.2799717324
S       -1.4962530724   -0.9349884446   -4.3655957297
Br      -2.9637355154   -2.4664162649   -2.0240760395
H       -0.5760451559   -0.7437364609   -0.8619118129
H        1.5345848122    2.5553546554   -3.6782815560
H        2.9237793075    2.4121377435   -2.5090683820
H        1.2772120195    2.6716855761   -0.5805347906
H       -0.0945301002    2.7559501730   -1.7899833716
H        1.9150689843    0.4280192243   -1.4336514930
H        1.6103196015    0.7891030613   -5.1670006742
H        0.2992124851    0.2133627697   -6.1959877241
H        0.1750426931    1.7960452077   -5.4284614296
19   
torsion grid (105,)
C        2.0701573995   -0.1613200696   -0.4510327549
C        1.3206610140    0.5038477045   -1.4871258292
C        0.0610382311   -0.0285844384   -1.6546740659
C        1.3695525009   -1.1722094811    0.1389212048
C        1.0494598260    2.8580714896   -2.6365446215
C        2.0298835159    3.0126881223   -1.5012912099
C        1.8981556445    1.6744087880   -2.2136543256
C       -1.0212520824    0.3369290246   -2.6332148057
S       -0.2195334840   -1.3532040155   -0.5423417535
Br       1.9543979161   -2.2991596419    1.5459875915
H        3.0771643490    0.1201423513   -0.1626928982
H       -0.0038198339    2.8495838523   -2.3795538260
H        1.2765833464    3.3330544558   -3.5865311760
H        2.9347449441    3.5900142468   -1.6678933095
H        1.6264268192    3.0760375402   -0.4951057922
H        2.7228261349    1.4311282491   -2.8816227066
H       -1.7282539715    1.0608506565   -2.2102909388
H       -0.5875501034    0.7742747486   -3.5344699599
H       -1.5961038061   -0.5444839528   -2.9329882504
19   
torsion grid (120,)
C        2.1057942038   -0.1371850643   -0.4940966671
C        1.3378568180    0.4909939107   -1.5379377001
C        0.1138742737   -0.1095215319   -1.7329701576
C        1.4499375779   -1.1885324708    0.0776816958
C        0.9955314611    2.9181407550   -2.4606129531
C        2.1960447368    2.9482359255   -1.5443940855
C        1.8476613169    1.6751003062   -2.2944831653
C       -0.9656182270    0.2337802099   -2.7200779854
S       -0.1156754713   -1.4526234327   -0.6333270120
Br       2.0677888659   -2.2897661167    1.4908738644
H        3.0920086535    0.1950590804   -0.1890658574
H        0.0137689741    2.9191972837   -1.9976359594
H        1.0530515476    3.4545293548   -3.4034047454
H        3.0738281036    3.5040168645   -1.8610279946
H        2.0120045759    2.9609753430   -0.4741458396
H        2.5022914529    1.4375325528   -3.1316080637
H       -1.7899942356    0.7803024527   -2.2462753966
H       -0.5598571381    0.8601463137   -3.5165374619
H       -1.3878051670   -0.6651635672   -3.1803423955
19   
torsion grid (135,)
C        2.2736280427   -0.1627231830   -0.6873687743
C        1.4189550142    0.4602242191   -1.6634918992
C        0.2360725950   -0.2210887570   -1.8480545220
C        1.7222722899   -1.2929366368   -0.1555932503
C        1.0024689109    2.9809988477   -2.2357514060
C        2.3967667489    2.8777482298   -1.6599647690
C        1.8007452327    1.7009633185   -2.4046376513
C       -0.8838459596    0.0854787622   -2.7993433657
S        0.1526422195   -1.6363237454   -0.8223642780
Br       2.4752978112   -2.4159095228    1.1724235545
H        3.2444770118    0.2251853189   -0.4001012317
H        0.1707791440    2.9599636779   -1.5377330303
H        0.8496453793    3.6082115663   -3.1094006023
H        3.1953460511    3.4353764736   -2.1401505315
H        2.4860564284    2.7955402220   -0.5807367881
H        2.2011754221    1.5317032094   -3.4028605872
H       -1.8634703432   -0.0047057242   -2.3183842214
H       -0.7812991950    1.1059999927   -3.1744588339
H       -0.8749998629   -0.5912679861   -3.6619633236
19   
torsion grid (150,)
C        2.2347850860   -0.1243009592   -0.6814035289
C        1.3855136815    0.4598196155   -1.6848602178
C        0.2554777667   -0.2899725325   -1.9275635197
C        1.7271073451   -1.2912224942   -0.1846458201
C        1.0273314078    3.0296759014   -2.0523734204
C        2.4961746830    2.8265050001   -1.7537268003
C        1.7078440034    1.7207824867   -2.4198208198
C       -0.8476826875   -0.0129740705   -2.9067251219
S        0.2118208373   -1.7199248810   -0.9223988531
Br       2.4960855960   -2.3908152992    1.1535507932
H        3.1753649970    0.3050500559   -0.3561786765
H        0.3360838334    3.0075735452   -1.2151139629
H        0.7508470257    3.7053824037   -2.8567603102
H        3.2237633965    3.3658560503   -2.3527498414
H        2.7797721488    2.6933444501   -0.7141081728
H        1.9043875370    1.5874351108   -3.4818674433
H       -1.8359808624   -0.1470166689   -2.4545742262
H       -0.7753768659    1.0190355337   -3.2584661977
H       -0.7911164007   -0.6727900056   -3.7806444420
19   
torsion grid (165,)
C        2.3925617269   -0.3491166373   -1.2424243965
C        1.4278388677    0.3092173847   -2.0804735135
C        0.3549283948   -0.4995859599   -2.3880735315
C        2.0295248978   -1.6309647466   -0.9358936075
C        1.0551718813    2.8844506032   -1.7625603714
C        2.5352029205    2.6901273384   -1.9977683119
C        1.5511944201    1.7065653737   -2.5907705070
C       -0.8322565897   -0.1659022892   -3.2448736989
S        0.5139211272   -2.0783764847   -1.6577015628
Br       2.9931474124   -2.8604030444    0.1369805532
H        3.3145447419    0.1033064461   -0.8968809807
H        0.6716765638    2.6612049569   -0.7714540382
H        0.5481666187    3.6948632709   -2.2785321026
H        3.0431081917    3.3676780974   -2.6773948109
H        3.1365123405    2.3713588290   -1.1522804028
H        1.3923513602    1.8059587289   -3.6621946375
H       -1.7253815553   -0.7161589250   -2.9344892933
H       -1.0555493010    0.9024639220   -3.1732090708
H       -0.6484318622   -0.4012550444   -4.3004810296
19   
torsion grid (180,)
C        2.2894130497   -0.2373223104   -1.0857640974
C        1.3660649532    0.3546055173   -2.0167066594
C        0.3525795306   -0.5088746393   -2.3740977497
C        1.9588329450   -1.5244461314   -0.7673139568
C        1.1774105681    2.9266064897   -1.5885945433
C        2.5681205053    2.6933121756   -2.1255461824
C        1.4502579259    1.7532302363   -2.5247397164
C       -0.7891634881   -0.2635596839   -3.3197738488
S        0.5244321741   -2.0601252368   -1.5864072105
Br       2.8942238871   -2.6783576805    0.4093736864
H        3.1616958998    0.2612368340   -0.6801493207
H        0.9914271680    2.6843961217   -0.5464867721
H        0.6030565462    3.7648584561   -1.9727265721
H        2.9469544541    3.3689387087   -2.8866033596
H        3.3257034118    2.3342614004   -1.4366328087
H        1.0841086141    1.8838300924   -3.5391310110
H       -1.6674609611   -0.8591566782   -3.0541129028
H       -1.0848204580    0.7889780379   -3.2927761906
H       -0.5210211931   -0.5129090175   -4.3538187798
