25   
torsion grid (-165,)
C        1.0273666616    0.4349887051    2.6556984870
C       -1.0685742784   -1.1906113858    0.4594731949
C        0.8857136800    0.1552625728   -0.5153807990
C        1.2648215839   -1.4124100129    1.5036570077
C       -1.9586963485   -0.4593117853   -0.5439853620
C        0.5721275776   -0.6593433375   -1.7666321942
C        0.2688908956   -0.4929153108    0.7426230879
N        1.7885848886   -0.5937484990    2.5981071733
N        1.0277704873    1.4160019355    3.6168835055
O       -1.6351007004   -1.6014429131   -2.9586323580
O       -1.3376685473    0.9349934930   -2.7627241704
O        0.0439452622    0.5845736086    1.7090493103
S       -1.1816125051   -0.4195862563   -2.2039530098
H       -1.6043102598   -1.2951557996    1.4074646984
H       -0.8738726414   -2.2072407084    0.1007734970
H        1.9671216964    0.2575791188   -0.3855201135
H        0.4844584186    1.1669091363   -0.6295976726
H        0.7609404089   -2.3020782500    1.9050600259
H        2.0707226402   -1.7611516170    0.8483860910
H       -2.9134493609   -0.9684564108   -0.6931138078
H       -2.1377198089    0.5786293028   -0.2564991581
H        1.1301060996   -0.3783638966   -2.6630343595
H        0.7141475277   -1.7329717240   -1.6187738425
H        0.7324410728    2.3306528669    3.2967882429
H        1.8677969119    1.4195716327    4.1825913962
25   
torsion grid (-150,)
C        1.0107089197    0.3691566365    2.6806675602
C       -1.1389264888   -1.1665322087    0.4661513584
C        0.8049658150    0.1969295260   -0.4861233848
C        1.2157590616   -1.4412203200    1.4661018144
C       -1.9797052288   -0.4239882381   -0.5708400842
C        0.5773054496   -0.6009971896   -1.7685697977
C        0.2092654617   -0.4946859271    0.7549146363
N        1.7660918778   -0.6598920890    2.5747316061
N        1.0356182118    1.3177389874    3.6737105550
O       -1.5530923353   -1.8909895585   -2.7728235863
O       -1.4624215562    0.6620770088   -2.9728986475
O        0.0089076559    0.5532651565    1.7597034124
S       -1.1976271379   -0.5734906958   -2.2151134471
H       -1.6912585154   -1.2436086528    1.4068946475
H       -0.9660602223   -2.1915483657    0.1198055618
H        1.8772370630    0.3556408949   -0.3343747709
H        0.3541125570    1.1888329270   -0.5903376238
H        0.7157393563   -2.3409538940    1.8490792314
H        2.0067084328   -1.7725714358    0.7840601136
H       -2.9693961346   -0.8692739274   -0.6975194992
H       -2.0842532728    0.6399518609   -0.3504850843
H        1.0831107129   -0.1518919838   -2.6263326761
H        0.8722488241   -1.6492724948   -1.6833782941
H        0.7392342212    2.2440612080    3.3903853561
H        1.8864682419    1.2980854993    4.2226704738
25   
torsion grid (-135,)
C        0.9834481970    0.3430820750    2.7306210052
C       -1.2298054357   -1.1020776254    0.5060458008
C        0.7428980696    0.2437476860   -0.4197989008
C        1.1322439544   -1.4505082796    1.4837128531
C       -1.9947925580   -0.4046219026   -0.6178438530
C        0.6089909194   -0.5252925422   -1.7361534602
C        0.1383242665   -0.4713119686    0.8010800985
N        1.7172593148   -0.6979495244    2.5947016481
N        1.0421916458    1.2738070658    3.7392863008
O       -1.3675938626   -2.1714092357   -2.5188151701
O       -1.5193042751    0.3052038983   -3.1600050516
O       -0.0295778839    0.5613880954    1.8296719641
S       -1.1542583349   -0.7483080228   -2.1968860968
H       -1.8182851500   -1.0893878712    1.4274801808
H       -1.0930744636   -2.1537510526    0.2328171126
H        1.8031672662    0.4409496589   -0.2298756864
H        0.2604503603    1.2205795062   -0.5236980942
H        0.6171845300   -2.3438745871    1.8611031272
H        1.9051375716   -1.7903843821    0.7854235546
H       -2.9995493771   -0.8135079734   -0.7511290718
H       -2.0590321948    0.6783328776   -0.4979304872
H        1.0318077390    0.0689434666   -2.5487467455
H        1.0593697118   -1.5192128492   -1.7096548743
H        0.7611385434    2.2107863598    3.4761595738
H        1.9003718387    1.2272539654    4.2750766763
25   
torsion grid (-120,)
C        1.0667679849    0.2628780190    2.7195032407
C       -1.3256162771   -0.9562416513    0.5278440865
C        0.6853033639    0.3573146612   -0.3959303098
C        1.0736243488   -1.4653042279    1.3758944093
C       -1.9956767760   -0.3850745145   -0.7217491478
C        0.6416011316   -0.3676244250   -1.7460654679
C        0.0907308778   -0.4103923367    0.7962785455
N        1.7501718778   -0.7950747415    2.4879853904
N        1.2161317241    1.1335463441    3.7718982222
O       -1.0586334411   -2.3971992560   -2.1899205319
O       -1.5176646090   -0.1612884142   -3.3532172929
O        0.0161660040    0.5671649378    1.8890783027
S       -1.0531728826   -0.9217389162   -2.1806012556
H       -1.9423500221   -0.7494684926    1.4063965277
H       -1.2817143810   -2.0429736244    0.4160537920
H        1.7294380585    0.5985309116   -0.1692321632
H        0.1590482484    1.3127836715   -0.4820971453
H        0.5392032722   -2.3530409100    1.7377516653
H        1.7921233854   -1.8042198050    0.6219716205
H       -2.9948577660   -0.8014995825   -0.8746200671
H       -2.0579250344    0.7047608660   -0.7426613369
H        0.9290448426    0.3325730336   -2.5325808421
H        1.2656634678   -1.2622619219   -1.7791402924
H        0.9633483637    2.0943269442    3.5741607749
H        2.0972803299    1.0223302334    4.2586197942
25   
torsion grid (-105,)
C        0.8624066624    0.5387134658    2.4938784719
C       -0.9340129011   -1.2768244819    0.4173640983
C        1.2572177413   -0.6032030648   -0.6548524010
C        1.2528666240   -1.4917072338    1.7496895116
C       -1.8343247970   -0.3253521090   -0.3642004580
C        0.6356931432    0.2460888612   -1.7709092214
C        0.4714385320   -0.7124045662    0.6480310422
N        1.3873408722   -0.5644617525    2.8730742033
N        0.7015926767    1.6810128773    3.2410623636
O       -1.3940193850   -1.0675304816   -2.8611161054
O       -1.6935147365    1.4338000384   -2.3940836564
O        0.3356342021    0.6252189694    1.2290237616
S       -1.1744382750    0.1141076621   -2.0002703412
H       -1.4071347881   -1.4683893628    1.3863624924
H       -0.8497665345   -2.2385345235   -0.0998431717
H        1.4020387058   -1.6229177181   -1.0265986985
H        2.2512352846   -0.1993887078   -0.4369300023
H        0.7143663531   -2.3961891149    2.0556069419
H        2.2421537570   -1.8069652028    1.3955103788
H       -2.8076847544   -0.7689720648   -0.5884221399
H       -1.9770165112    0.6138495917    0.1730169762
H        0.8678547588    1.3126699460   -1.7712783172
H        0.9940351491   -0.1240296501   -2.7366411633
H        0.6573041637    2.5396545126    2.7056744220
H        1.3109331811    1.7208460092    4.0489495754
25   
torsion grid (-90,)
C        0.8825507031    0.5350726948    2.4652685325
C       -0.9718537761   -1.2125657470    0.3876088976
C        1.2225640953   -0.5507772351   -0.7066898968
C        1.2257411324   -1.4899262032    1.6833347799
C       -1.8484869127   -0.2740929245   -0.4378527762
C        0.5978625078    0.3644185742   -1.7623821974
C        0.4478410808   -0.6782117225    0.6032023398
N        1.3929953318   -0.5830227225    2.8192257283
N        0.7507352317    1.6670171455    3.2344958300
O       -1.2205100781   -1.2460796246   -2.8180560562
O       -1.7761747251    1.2501347890   -2.6518972536
O        0.3417823681    0.6527234312    1.2089725226
S       -1.1621005454    0.0377286047   -2.0879818449
H       -1.4480012497   -1.3536039253    1.3638516642
H       -0.9119525192   -2.1943840888   -0.0932515181
H        1.3305813299   -1.5554535664   -1.1286313674
H        2.2303435165   -0.1818179288   -0.4891161994
H        0.6719184137   -2.3873088704    1.9825120959
H        2.2036997403   -1.8203859730    1.3123147464
H       -2.8368900129   -0.6979348451   -0.6341890523
H       -1.9619785966    0.6991235200    0.0441179221
H        0.7046155221    1.4386558584   -1.5987306735
H        1.0511170715    0.1601970445   -2.7380733920
H        0.7201562238    2.5356072542    2.7144352947
H        1.3701616315    1.6803403407    4.0356074728
25   
torsion grid (-75,)
C        0.9341034592    0.5212395422    2.3744822446
C       -1.0600942877   -1.0556094791    0.2401777930
C        1.1432611328   -0.3547174753   -0.8371750379
C        1.1524511471   -1.4721220995    1.4745282577
C       -1.9113867364   -0.0822837807   -0.5752528982
C        0.5062929477    0.6578236464   -1.7906601575
C        0.3746017218   -0.5698875175    0.4685301634
N        1.4414836015   -0.6242596928    2.6312285072
N        0.8865002331    1.6124807507    3.2103293758
O       -1.1387504633   -1.1076518987   -2.9031659342
O       -1.8634582727    1.3485141560   -2.8502073659
O        0.3046132360    0.7173232683    1.1705003869
S       -1.1966956643    0.1994246812   -2.2175608811
H       -1.5386343619   -1.2020539328    1.2142779211
H       -1.0275421844   -2.0282739070   -0.2611483927
H        1.2346928688   -1.3192470684   -1.3470429640
H        2.1563373374   -0.0150166787   -0.5964970613
H        0.5555064918   -2.3417712346    1.7738814246
H        2.0829428025   -1.8522921943    1.0365814784
H       -2.9138814499   -0.4733082368   -0.7689279103
H       -1.9933432263    0.8951594138   -0.0947476926
H        0.4756234611    1.6793145253   -1.4054609953
H        1.0259766242    0.6738369404   -2.7533242686
H        0.8573169725    2.5089484969    2.7397249170
H        1.5554354315    1.5615166725    3.9691217750
25   
torsion grid (-60,)
C        0.9597709988    0.5431072136    2.2692242247
C       -1.1907899884   -0.9914597018    0.1875784937
C        1.0175848685   -0.2771087795   -0.9081896142
C        1.0444677958   -1.4596046242    1.3689273309
C       -2.0402229719   -0.0317810339   -0.6528649120
C        0.3434855885    0.7738360501   -1.7951429606
C        0.2547147196   -0.5289834950    0.4002505761
N        1.4812994135   -0.6063865049    2.4747373913
N        1.0074626874    1.6356339470    3.1033813755
O       -1.1363928466   -1.1570414048   -2.8978510847
O       -2.0046066838    1.2475267126   -3.0167229292
O        0.2089873579    0.7418458271    1.1372053400
S       -1.2961335604    0.1798061188   -2.2924303864
H       -1.6626041674   -1.1095267418    1.1684946148
H       -1.1756465771   -1.9749624516   -0.2927108076
H        1.1110684361   -1.2204875775   -1.4546948757
H        2.0282790453    0.0634394786   -0.6583182578
H        0.4142569232   -2.2764982311    1.7416187812
H        1.9069893955   -1.9159387664    0.8704753872
H       -3.0432748244   -0.4263849875   -0.8355678473
H       -2.1189175340    0.9623865947   -0.2077876497
H        0.1836187665    1.6965709571   -1.2331370454
H        0.8919602307    0.9754269500   -2.7180709644
H        0.9559428197    2.5328316668    2.6360712037
H        1.7387849050    1.5703626686    3.8010760853
25   
torsion grid (-45,)
C        0.9499992918    0.4485194172    2.3598436048
C       -1.2394690847   -1.0322301018    0.2425142056
C        1.0027731666   -0.2682308687   -0.8052617203
C        0.9878510413   -1.5386197725    1.4243619353
C       -2.0830862942   -0.0997000558   -0.6429033044
C        0.2868353953    0.7999659423   -1.6459981420
C        0.2083317973   -0.5779459287    0.4792851240
N        1.4812941587   -0.7035890506    2.5208114223
N        1.0284574017    1.5243358138    3.2131490489
O       -0.9720747129   -1.2947003156   -2.7641055875
O       -1.9825377134    1.0313175145   -3.0814933414
O        0.1524725389    0.6663873582    1.2632892613
S       -1.2572043795    0.0579554088   -2.2482916252
H       -1.7256501022   -1.1303698891    1.2182707430
H       -1.2171758913   -2.0249497745   -0.2174650838
H        1.1424644566   -1.1871370305   -1.3809627258
H        1.9915945549    0.0996216211   -0.5108873648
H        0.3385200965   -2.3333139721    1.8127953386
H        1.8195389349   -2.0235260868    0.9021909195
H       -3.0715401636   -0.5197959838   -0.8461020564
H       -2.1925143205    0.9066216885   -0.2343428258
H        0.0002579368    1.5761404741   -0.9337716016
H        0.8504666147    1.1823504215   -2.4975879248
H        0.9687570734    2.4309279107    2.7652676607
H        1.7802558721    1.4411448593    3.8868099691
25   
torsion grid (-30,)
C        0.9937927647    0.4255965240    2.3605973172
C       -1.2530416123   -0.9659734901    0.2494156660
C        1.0305993205   -0.2381548861   -0.8144282444
C        0.9727708243   -1.5490628784    1.3978144481
C       -2.0919021378   -0.0787628789   -0.6989770225
C        0.2687875208    0.8286039652   -1.6317165116
C        0.2184942276   -0.5550846000    0.4666366351
N        1.4907006382   -0.7435791683    2.5050592932
N        1.1041916936    1.4876421209    3.2280228550
O       -0.8424268677   -1.4151274014   -2.6575326893
O       -1.9106700611    0.8302832191   -3.2273580285
O        0.2008935978    0.6808949737    1.2686328293
S       -1.1990023583   -0.0369739769   -2.2727448142
H       -1.7317667557   -0.9914031380    1.2331534870
H       -1.2620948924   -1.9848925414   -0.1483406227
H        1.1982895196   -1.1517642751   -1.3889618055
H        2.0039264636    0.1532013958   -0.5001643877
H        0.3038138821   -2.3321263555    1.7761052177
H        1.7903476890   -2.0477736374    0.8667795447
H       -3.0716452159   -0.5218505196   -0.8941949143
H       -2.2143664606    0.9513203403   -0.3617635334
H       -0.0667458360    1.4623501755   -0.8103221150
H        0.8095176545    1.3312124848   -2.4317757161
H        1.0727750194    2.4009324478    2.7908272428
H        1.8549883786    1.3734642688    3.8983439526
25   
torsion grid (-15,)
C        1.1113827568    0.4742654284    2.3186226951
C       -1.2181162392   -0.8718081306    0.2189175059
C        1.1372005139   -0.1696289297   -0.8077630881
C        0.9858789196   -1.5098821955    1.3874600482
C       -2.0382497018   -0.0650796898   -0.8312801096
C        0.3266700407    0.8637829730   -1.6424317522
C        0.2710981572   -0.4976614536    0.4492144226
N        1.5925824969   -0.7033086026    2.4489768066
N        1.2844542595    1.5417102627    3.1682627720
O       -0.5963016044   -1.5476445406   -2.5318445714
O       -1.6784748799    0.5733402031   -3.4322852902
O        0.2670621120    0.7325294613    1.2656623512
S       -1.0287740613   -0.1532992936   -2.3270133924
H       -1.7112279594   -0.8020618704    1.1928067251
H       -1.2472179377   -1.9195875914   -0.0906026899
H        1.3708007982   -1.0793413942   -1.3625646894
H        2.0733602711    0.2708242604   -0.4502423494
H        0.2777458348   -2.2302089150    1.8168171754
H        1.7467436455   -2.0816467523    0.8473411671
H       -2.9951505862   -0.5524493292   -1.0331980992
H       -2.1965599332    0.9862096341   -0.5915608010
H       -0.0579667861    1.3577893148   -0.7528542001
H        0.8272744551    1.4648354298   -2.3970501709
H        1.2585397582    2.4514547000    2.7233978421
H        2.0567491550    1.4140783446    3.8111321721
25   
torsion grid (0,)
C        1.1674047214    0.4223053540    2.2672401118
C       -1.2772649373   -0.7614791060    0.1787535694
C        1.1296028415   -0.0635626128   -0.8627084998
C        0.9390283263   -1.5183541851    1.2679823329
C       -2.1030216063   -0.0311330828   -0.9416671531
C        0.2361398640    0.9448520803   -1.6733064272
C        0.2459900744   -0.4457231231    0.3847420219
N        1.6173779841   -0.7729115457    2.3312276856
N        1.4036160296    1.4491363560    3.1510154738
O       -0.5146299495   -1.5985701635   -2.4141085634
O       -1.6017293832    0.3812169396   -3.5727502742
O        0.2901061709    0.7458445653    1.2596081829
S       -1.0101532731   -0.2121303319   -2.3594156539
H       -1.7504500027   -0.5913925756    1.1495236276
H       -1.3510976309   -1.8283708284   -0.0402726453
H        1.4272119197   -0.9490234043   -1.4231900459
H        2.0269273415    0.4292215625   -0.4770417672
H        0.2107302084   -2.2155109862    1.7019643101
H        1.6510859110   -2.1098810341    0.6853380197
H       -3.0404098748   -0.5599969362   -1.1288666660
H       -2.2849054441    1.0310071045   -0.7855217752
H       -0.1006819388    1.3124952064   -0.7095963762
H        0.6695249769    1.6175772352   -2.4070267542
H        1.3926241193    2.3763227335    2.7430219662
H        2.1921689530    1.2716675389    3.7615236924
25   
torsion grid (105,)
C        0.7929518571    0.7213223452    2.3653626268
C       -0.6664924370   -1.2764055693    0.3673056857
C        1.4850553122   -0.2893432137   -0.8892386035
C        1.5740001163   -1.1609788537    1.5778126000
C       -1.7362518977   -0.8993946995   -0.7218138715
C        0.5846621611   -0.7277282417   -2.0359734302
C        0.6964220544   -0.4952648999    0.4645450621
N        1.4181235075   -0.3236640919    2.7641686126
N        0.3916256543    1.7921352178    3.1266705969
O       -1.7207096878    0.0854702689   -3.1988050973
O       -0.7335049889    1.5410912576   -1.3538574594
O        0.4141161885    0.8068252590    1.0534994379
S       -0.9754465348    0.2157668959   -1.9335699827
H       -1.1200603264   -1.1901009573    1.3581312797
H       -0.4180530023   -2.3356006262    0.2443693157
H        2.3924842765   -0.8998859030   -0.8795430186
H        1.7789258540    0.7590308253   -0.9579032519
H        1.2544891448   -2.1900736599    1.7774090416
H        2.6300257668   -1.2013446713    1.2803835902
H       -2.0860388385   -1.7663837667   -1.2825770404
H       -2.5899474989   -0.3678683545   -0.2956480745
H        0.7164394948   -1.3282464942   -2.9429593725
H        0.1708908533   -1.6407353318   -1.5777799339
H        0.2329033791    2.6454238500    2.6042945355
H        0.9251415415    1.9085834730    3.9791235894
25   
torsion grid (120,)
C        0.7656299139    0.7026916719    2.3808317784
C       -0.6694001440   -1.2985457512    0.3907095215
C        1.4595425041   -0.3337819337   -0.8667752955
C        1.5663892886   -1.1770242688    1.6042129177
C       -1.7522313243   -0.8359315032   -0.6400589187
C        0.5455053971   -0.7276008211   -2.0143957796
C        0.6856466517   -0.5261168362    0.4884478962
N        1.3927358445   -0.3382234768    2.7876956726
N        0.3530506412    1.7742453186    3.1349645342
O       -1.7621160901    0.0601658772   -3.1563378059
O       -0.7358510696    1.5752956480   -1.3806080818
O        0.3973672482    0.7822593024    1.0651410825
S       -0.9978507866    0.2305807092   -1.9069264498
H       -1.1022053846   -1.2726666307    1.3944957715
H       -0.4289248952   -2.3485228797    0.1943596827
H        2.3471851038   -0.9732534128   -0.8739110491
H        1.7870169629    0.7053364943   -0.9282512038
H        1.2588613181   -2.2099804282    1.8032628568
H        2.6243680846   -1.2033711448    1.3117549669
H       -2.1972842709   -1.6736879428   -1.1775777881
H       -2.5392274349   -0.2422674926   -0.1700966906
H        0.7338573891   -1.1313260806   -3.0141119053
H        0.1378711056   -1.6898295041   -1.6703808604
H        0.1943118716    2.6248970448    2.6082556545
H        0.8795182637    1.8964402107    3.9910111903
25   
torsion grid (135,)
C        0.7445507747    0.6906817835    2.3856836402
C       -0.6615438945   -1.3121110449    0.3944194401
C        1.4520703631   -0.3742525072   -0.8508842731
C        1.5649457461   -1.1881876377    1.6254384008
C       -1.7434433207   -0.7540063830   -0.5760356201
C        0.5395973611   -0.7271608367   -2.0128844495
C        0.6877558568   -0.5514072047    0.5025892470
N        1.3699951523   -0.3465967642    2.8044275046
N        0.3198603555    1.7642212258    3.1301622139
O       -1.7765025028    0.0284085822   -3.1362116461
O       -0.7033075495    1.6070224359   -1.4442741646
O        0.3922975718    0.7636035885    1.0646797141
S       -0.9905280324    0.2430210145   -1.9070653165
H       -1.0824549935   -1.3485730640    1.4033623050
H       -0.4354085755   -2.3483537864    0.1224236978
H        2.3219539767   -1.0380284447   -0.8667686437
H        1.8099551387    0.6552497655   -0.9078964553
H        1.2666752017   -2.2240214840    1.8240531604
H        2.6259696711   -1.2028240761    1.3429489633
H       -2.2991107512   -1.5495351479   -1.0737878593
H       -2.4396036441   -0.0849146540   -0.0660761146
H        0.8043086721   -0.9315003942   -3.0540164656
H        0.1405508960   -1.7255676246   -1.7883293383
H        0.1661015297    2.6123163117    2.5978108976
H        0.8357838469    1.8915110679    3.9919050976
25   
torsion grid (150,)
C        0.7160228206    0.6768112180    2.3765395480
C       -0.6621133421   -1.3365101837    0.3894337864
C        1.4358924739   -0.4224191906   -0.8457425016
C        1.5571909398   -1.2025240168    1.6381124226
C       -1.7358794734   -0.6924991791   -0.5218744490
C        0.5377678367   -0.7563294127   -2.0275300056
C        0.6822056663   -0.5846457990    0.5065719881
N        1.3415490144   -0.3545078894    2.8096583578
N        0.2784242611    1.7537870524    3.1085238403
O       -1.8043013247   -0.0830915697   -3.1349705403
O       -0.6931805635    1.5928881285   -1.5633849114
O        0.3782788843    0.7382564393    1.0505950964
S       -0.9953746289    0.2033094770   -1.9360465373
H       -1.0765175617   -1.4262478117    1.3983019050
H       -0.4523473369   -2.3568740369    0.0520617135
H        2.2987311195   -1.0957351931   -0.8631396469
H        1.8083773281    0.6017942204   -0.9071896809
H        1.2696845954   -2.2406403525    1.8407659209
H        2.6207379024   -1.2052928201    1.3645423093
H       -2.4075894706   -1.4368006531   -0.9518152745
H       -2.3167283253    0.0596019384    0.0156268676
H        0.8861287983   -0.7761700867   -3.0634580401
H        0.1694717218   -1.7829773617   -1.9137523596
H        0.1288645253    2.5979886059    2.5688145000
H        0.7837790147    1.8886819436    3.9754044949
25   
torsion grid (165,)
C        0.7203907763    0.6757501012    2.3880955929
C       -0.6409861060   -1.3278044513    0.3759534626
C        1.4453104100   -0.4077805244   -0.8334289871
C        1.5706379148   -1.1994357650    1.6460198224
C       -1.7019665327   -0.6071934208   -0.4791205234
C        0.5773229072   -0.7329812251   -2.0447519086
C        0.6982143088   -0.5815186951    0.5141095778
N        1.3483520637   -0.3546395487    2.8191750331
N        0.2775151347    1.7491013205    3.1225416441
O       -1.8049383006   -0.2073935767   -3.1389634099
O       -0.7016730905    1.5935275016   -1.7016226521
O        0.3857635403    0.7398534114    1.0608293995
S       -0.9864365612    0.1757189921   -1.9743867068
H       -1.0549900930   -1.4720298268    1.3791973218
H       -0.4438414007   -2.3276154003   -0.0248553742
H        2.3163575573   -1.0706141719   -0.8525998974
H        1.8098548120    0.6197429166   -0.8886561117
H        1.2844041887   -2.2386004326    1.8451821217
H        2.6353023092   -1.1990067822    1.3770854761
H       -2.4747731373   -1.2921703406   -0.8316552645
H       -2.1590948957    0.2162359268    0.0721410993
H        1.0045098310   -0.5704123290   -3.0375993617
H        0.2752784455   -1.7853468267   -2.0432859554
H        0.1334980115    2.5967372870    2.5866839254
H        0.7779491805    1.8791309565    3.9931080603
25   
torsion grid (180,)
C        0.7927737414    0.6528966150    2.4428843311
C       -0.6143191624   -1.2343629374    0.3624446003
C        1.4752134257   -0.3098168419   -0.8258677327
C        1.6011144369   -1.2104480910    1.6248046582
C       -1.6316258583   -0.4449102804   -0.4705184092
C        0.6712713729   -0.7241490934   -2.0574559717
C        0.7423476829   -0.5302421324    0.5196497615
N        1.3928449714   -0.4099369744    2.8316924978
N        0.3732867852    1.7044149404    3.2217617361
O       -1.7521730619   -0.5227900896   -3.1630231027
O       -0.7283557612    1.5429084734   -2.0519944184
O        0.4658849706    0.7802329612    1.1171012257
S       -0.9499894279    0.0866145617   -2.0872417853
H       -1.0400960459   -1.3899327610    1.3594317433
H       -0.4534869518   -2.2294688924   -0.0658333652
H        2.4120729880   -0.8755723427   -0.8309947402
H        1.7352314165    0.7481965834   -0.8981531439
H        1.2947281027   -2.2509266261    1.7817204229
H        2.6662907044   -1.2190005790    1.3585638239
H       -2.5182120562   -1.0396130605   -0.6978870657
H       -1.9182297650    0.4788284864    0.0336695668
H        1.1473141540   -0.4512543267   -3.0029431863
H        0.4730831989   -1.7986166914   -2.0933436642
H        0.2587031230    2.5801375747    2.7256486180
H        0.8707238200    1.7801303195    4.1005457664
