20   
torsion grid (-165,)
C       -0.8863070208    0.9492630574   -0.9683492126
C       -0.8154872845   -0.1515152318    1.3523211508
C        0.2377015770    0.0762347511   -1.5331371595
C        0.3137249102   -1.1158384929    0.9830545629
C       -1.6634008292    0.2161453481    0.1274514589
N       -2.8686777806    1.0474630585    0.5776910180
O       -3.4099030980    0.7183031808    1.6337029174
O       -3.2395660169    1.9672588884   -0.1505879464
O        2.3406875734   -1.4054770466   -0.7573198736
O        1.9533714083    0.8797846518    0.3378639758
S        1.4319407606   -0.3720791588   -0.2401152260
H       -0.4637308479    1.8741268863   -0.5669241064
H       -1.5607577718    1.2242266522   -1.7813406160
H       -1.4493481305   -0.6189181250    2.1076383371
H       -0.3890454040    0.7564488014    1.7889431271
H       -0.1225432004   -0.8600968816   -1.9694858132
H        0.8210638952    0.6123357369   -2.2861419380
H        0.9447004796   -1.3436688436    1.8460364336
H       -0.0472777929   -2.0549451419    0.5534042989
H       -2.1291009213   -0.6890230246   -0.2803450035
20   
torsion grid (-150,)
C       -0.8788564403    0.9607952101   -0.9550501615
C       -0.8201071121   -0.1688089024    1.3549495747
C        0.2439948916    0.0928901856   -1.5278307454
C        0.3075981191   -1.1311019884    0.9730243125
C       -1.6605045502    0.2183433190    0.1346403763
N       -2.8693136693    1.0554326075    0.5669357726
O       -3.2600489298    0.9379386267    1.7279410381
O       -3.4014614065    1.7609795897   -0.2901052931
O        2.3405259704   -1.4033740212   -0.7628416527
O        1.9543983629    0.8690367986    0.3593960539
S        1.4322674715   -0.3744419717   -0.2359243232
H       -0.4529818579    1.8793566712   -0.5410669389
H       -1.5552002458    1.2440290404   -1.7630513824
H       -1.4538709446   -0.6466195087    2.1037857014
H       -0.3936388720    0.7296413628    1.8096536151
H       -0.1185139150   -0.8368475864   -1.9762441960
H        0.8306907663    0.6365495405   -2.2727874909
H        0.9355697482   -1.3740491619    1.8340474576
H       -0.0544658925   -2.0628909031    0.5285072116
H       -2.1280369885   -0.6768298421   -0.2936185445
20   
torsion grid (-135,)
C       -0.8739296058    0.9703436671   -0.9418374468
C       -0.8272671209   -0.1854224013    1.3559282782
C        0.2486615935    0.1089637751   -1.5231470150
C        0.3002734070   -1.1451180954    0.9646589329
C       -1.6607427758    0.2141243629    0.1380921638
N       -2.8649194028    1.0594862394    0.5550216661
O       -3.1089837218    1.1734147604    1.7553863885
O       -3.5372660859    1.5457539828   -0.3555121146
O        2.3393848204   -1.3998791247   -0.7660707619
O        1.9528810486    0.8607651554    0.3791120316
S        1.4309267481   -0.3753186353   -0.2312149979
H       -0.4458635612    1.8814293431   -0.5127232859
H       -1.5523935331    1.2633699641   -1.7450609005
H       -1.4627323214   -0.6720047444    2.0987642669
H       -0.4023799287    0.7056933296    1.8247649190
H       -0.1137751835   -0.8147181564   -1.9838284001
H        0.8386379802    0.6614324088   -2.2589824729
H        0.9252429705   -1.4003476101    1.8242897456
H       -0.0605339807   -2.0706754371    0.5063155615
H       -2.1271768413   -0.6712637179   -0.3095961732
20   
torsion grid (-120,)
C       -0.8716831196    0.9799114169   -0.9295485140
C       -0.8336334183   -0.1990271555    1.3545353465
C        0.2538339719    0.1267578070   -1.5169991432
C        0.2922821328   -1.1587664985    0.9580033582
C       -1.6631703457    0.2059837206    0.1368435464
N       -2.8604685310    1.0566529918    0.5448724067
O       -2.9636578013    1.4015170777    1.7212658433
O       -3.6567918332    1.3357525541   -0.3533553150
O        2.3365705512   -1.3971441327   -0.7699343438
O        1.9526715522    0.8489975293    0.4031608182
S        1.4291430926   -0.3771913615   -0.2250052096
H       -0.4474320105    1.8858227327   -0.4858386785
H       -1.5492826303    1.2792434391   -1.7324333209
H       -1.4721653941   -0.6896359870    2.0934971208
H       -0.4094796121    0.6878760420    1.8302833558
H       -0.1078315210   -0.7901260824   -1.9915037442
H        0.8483118458    0.6882777953   -2.2423002729
H        0.9142835626   -1.4240821520    1.8167287602
H       -0.0685039341   -2.0785423305    0.4882517511
H       -2.1249520524   -0.6722483404   -0.3261633797
20   
torsion grid (-105,)
C       -0.8692225250    0.9883257393   -0.9186815994
C       -0.8418733764   -0.2128716011    1.3507817568
C        0.2602705829    0.1431615185   -1.5106302190
C        0.2847386152   -1.1708808213    0.9527361790
C       -1.6674401858    0.1974758930    0.1315127479
N       -2.8562207596    1.0533189763    0.5382119101
O       -2.8266635676    1.6157638502    1.6322843828
O       -3.7679621451    1.1401162796   -0.2868669258
O        2.3335203354   -1.3964398528   -0.7710865222
O        1.9529386862    0.8384814855    0.4237550609
S        1.4277283517   -0.3793380616   -0.2184531193
H       -0.4502433124    1.8886177459   -0.4593499884
H       -1.5415008082    1.2961030593   -1.7241015150
H       -1.4842184483   -0.7082479759    2.0845249976
H       -0.4207445093    0.6719055026    1.8319221363
H       -0.0988662831   -0.7664170962   -2.0006166934
H        0.8602227581    0.7148765401   -2.2234036630
H        0.9030247386   -1.4430183228    1.8120504399
H       -0.0736154877   -2.0865893121    0.4734329405
H       -2.1258281545   -0.6743144804   -0.3436619209
20   
torsion grid (-90,)
C       -0.8638973920    0.9961847450   -0.9124419437
C       -0.8532136907   -0.2284034027    1.3440963792
C        0.2690000893    0.1561692696   -1.5056388352
C        0.2771398175   -1.1816894579    0.9462618369
C       -1.6713239278    0.1938067471    0.1218428395
N       -2.8498979433    1.0547983153    0.5366502433
O       -2.7022317775    1.8137258791    1.4946660556
O       -3.8693306649    0.9571077964   -0.1495647693
O        2.3362822740   -1.3910176821   -0.7666280324
O        1.9482870496    0.8329101714    0.4461274787
S        1.4272479559   -0.3788482595   -0.2104457953
H       -0.4497848096    1.8907284596   -0.4388042331
H       -1.5279581569    1.3137401590   -1.7219818624
H       -1.5021333183   -0.7344987918    2.0656979056
H       -0.4390218467    0.6532436721    1.8364685560
H       -0.0870303139   -0.7480128738   -2.0075887675
H        0.8746429976    0.7348595658   -2.2079341343
H        0.8901324741   -1.4597530410    1.8075184493
H       -0.0768318808   -2.0939388278    0.4573050624
H       -2.1320324301   -0.6710833777   -0.3612460480
20   
torsion grid (-75,)
C       -0.8535548382    1.0080033536   -0.9102594452
C       -0.8659011597   -0.2367879389    1.3330606880
C        0.2817640310    0.1695221893   -1.5015264627
C        0.2654177628   -1.1898098603    0.9392678473
C       -1.6733716392    0.1971001083    0.1052630974
N       -2.8479015577    1.0507122309    0.5390222032
O       -2.6185123894    1.9768351686    1.3179403373
O       -3.9489889261    0.7729161865    0.0598619571
O        2.3352088557   -1.3939699534   -0.7604410586
O        1.9500852846    0.8201738691    0.4713845213
S        1.4277440997   -0.3818026174   -0.2015771944
H       -0.4428248452    1.8954414441   -0.4217480363
H       -1.5057451849    1.3396401543   -1.7246090450
H       -1.5229487976   -0.7474744968    2.0445119581
H       -0.4548164266    0.6431470397    1.8320284592
H       -0.0711453783   -0.7295400373   -2.0147740629
H        0.8950524821    0.7528073825   -2.1932936909
H        0.8697708539   -1.4760911606    1.8039214398
H       -0.0875717482   -2.0970338568    0.4404747022
H       -2.1337159730   -0.6637601395   -0.3841478294
20   
torsion grid (-60,)
C       -0.8392403590    1.0222139379   -0.9116274979
C       -0.8808536815   -0.2432945743    1.3191284548
C        0.2968393455    0.1813276710   -1.4987239836
C        0.2515192879   -1.1968128204    0.9312920938
C       -1.6739126208    0.2066171313    0.0843579046
N       -2.8474937259    1.0465111155    0.5455115596
O       -2.5903725039    2.1088886415    1.1136521765
O       -3.9774547994    0.6059544367    0.3260613806
O        2.3337344720   -1.3998644529   -0.7509926000
O        1.9510096001    0.8081031636    0.4936475479
S        1.4278870276   -0.3857887720   -0.1930047843
H       -0.4300338340    1.9024631490   -0.4105191928
H       -1.4783330298    1.3679385939   -1.7307290650
H       -1.5491743193   -0.7586174324    2.0167217446
H       -0.4719658615    0.6323822564    1.8287302612
H       -0.0545411708   -0.7124387193   -2.0222477276
H        0.9202688121    0.7662079202   -2.1800028967
H        0.8454974712   -1.4917687890    1.8002401648
H       -0.1009248679   -2.0987632331    0.4227274897
H       -2.1344107372   -0.6512301575   -0.4098626446
20   
torsion grid (-45,)
C       -0.8244140695    1.0367906547   -0.9119595304
C       -0.8943125946   -0.2507302059    1.3065658264
C        0.3103746864    0.1913256893   -1.4960675839
C        0.2373557732   -1.2061636755    0.9217436119
C       -1.6727544664    0.2193708476    0.0671129906
N       -2.8481974956    1.0448976652    0.5518850967
O       -2.6272385367    2.2091807886    0.8869254809
O       -3.9419024358    0.4789233449    0.6058467758
O        2.3368552319   -1.4026395442   -0.7414109974
O        1.9470632485    0.7952554113    0.5172251476
S        1.4273313489   -0.3909244318   -0.1852257727
H       -0.4137144136    1.9107336610   -0.4027347067
H       -1.4529826909    1.3950726171   -1.7336191100
H       -1.5750322421   -0.7700371914    1.9886175820
H       -0.4840193082    0.6167006367    1.8303508444
H       -0.0419549157   -0.6966041010   -2.0289113553
H        0.9433817147    0.7767155132   -2.1679941400
H        0.8221163664   -1.5098519529    1.7939593510
H       -0.1160105554   -2.1024138935    0.4039543569
H       -2.1339001400   -0.6355727672   -0.4319034824
20   
torsion grid (-30,)
C       -0.8119815794    1.0509464193   -0.9071884360
C       -0.9035459610   -0.2589477149    1.2988757664
C        0.3209046271    0.2023732138   -1.4914780918
C        0.2252863479   -1.2165198557    0.9121884105
C       -1.6694863259    0.2315686759    0.0586013484
N       -2.8522044892    1.0442733122    0.5539860593
O       -2.7219477046    2.2651491674    0.6418956578
O       -3.8581848387    0.4066437470    0.8717532277
O        2.3345040420   -1.4090428490   -0.7391880417
O        1.9486194119    0.7784179171    0.5389751711
S        1.4269383398   -0.3976227241   -0.1791668608
H       -0.3960836196    1.9182777028   -0.3912867043
H       -1.4323943225    1.4238969334   -1.7278451624
H       -1.5951084601   -0.7798214234    1.9675003117
H       -0.4891316034    0.5991872949    1.8358201712
H       -0.0323231279   -0.6797740833   -2.0333814296
H        0.9610921860    0.7893606222   -2.1551124435
H        0.8021171906   -1.5326265656    1.7852424478
H       -0.1303783009   -2.1051738068    0.3829504107
H       -2.1286473067   -0.6205369171   -0.4487814269
20   
torsion grid (-15,)
C       -0.8012235868    1.0634058258   -0.8964421985
C       -0.9087841874   -0.2704679779    1.2951111989
C        0.3288446458    0.2133028267   -1.4846845069
C        0.2174407800   -1.2283583061    0.9029153019
C       -1.6660202299    0.2405315991    0.0579874176
N       -2.8574351893    1.0472555011    0.5524075956
O       -2.8485081238    2.2670771263    0.3919588903
O       -3.7538367044    0.4046577360    1.1027645553
O        2.3341726649   -1.4134348113   -0.7402456418
O        1.9505228892    0.7637634762    0.5560114075
S        1.4275106074   -0.4041143492   -0.1748384490
H       -0.3797822563    1.9232849754   -0.3720417927
H       -1.4150375156    1.4506608306   -1.7144158790
H       -1.6078214892   -0.7938661097    1.9524769104
H       -0.4914269616    0.5781598842    1.8454635544
H       -0.0279897368   -0.6617314048   -2.0357616623
H        0.9740842555    0.8027042133   -2.1412022012
H        0.7885877593   -1.5569589378    1.7750643715
H       -0.1403241713   -2.1095367759    0.3625556540
H       -2.1249289441   -0.6063062559   -0.4607241406
20   
torsion grid (0,)
C       -0.7935376476    1.0728842174   -0.8846432935
C       -0.9104278120   -0.2844438722    1.2926225014
C        0.3373024209    0.2254348974   -1.4755539015
C        0.2112649234   -1.2434376958    0.8903947247
C       -1.6634831535    0.2469218388    0.0628219110
N       -2.8622855507    1.0559265050    0.5508868856
O       -2.9908053168    2.2130660471    0.1537830099
O       -3.6395932221    0.4720936889    1.3081513216
O        2.3385618376   -1.4117852199   -0.7426921936
O        1.9493366343    0.7494165122    0.5791649105
S        1.4293579524   -0.4091372878   -0.1692454896
H       -0.3712311475    1.9287598875   -0.3532160365
H       -1.4026377698    1.4667845435   -1.7017222835
H       -1.6120004126   -0.8092005105    1.9445867179
H       -0.4875313355    0.5544768082    1.8536922728
H       -0.0211985764   -0.6424172139   -2.0369482682
H        0.9859919612    0.8193052906   -2.1245783184
H        0.7766936169   -1.5885954113    1.7598425618
H       -0.1491652935   -2.1145529262    0.3354903546
H       -2.1265676033   -0.5914710329   -0.4684770017
20   
torsion grid (15,)
C       -0.7867307797    1.0811395853   -0.8710324167
C       -0.9135829107   -0.3007468688    1.2911884779
C        0.3452197800    0.2393463802   -1.4668203150
C        0.2066728524   -1.2575782647    0.8781339155
C       -1.6618891757    0.2502764326    0.0696644527
N       -2.8672687822    1.0665905831    0.5449516500
O       -3.1409185783    2.1013411281   -0.0618047468
O       -3.5145634582    0.6050002053    1.4855651206
O        2.3401522741   -1.4113140222   -0.7487964976
O        1.9505931803    0.7341140049    0.5992018858
S        1.4310245651   -0.4140759965   -0.1655526445
H       -0.3638194914    1.9312820415   -0.3294832162
H       -1.3930613719    1.4820488529   -1.6854639699
H       -1.6142303784   -0.8313513736    1.9380736738
H       -0.4891456185    0.5281761706    1.8654071086
H       -0.0136903409   -0.6202242391   -2.0405893215
H        0.9969972232    0.8401707078   -2.1062968212
H        0.7681525155   -1.6158691228    1.7448233277
H       -0.1537414711   -2.1207492729    0.3108123460
H       -2.1281255278   -0.5775478657   -0.4776216239
20   
torsion grid (30,)
C       -0.7810252052    1.0890736276   -0.8572626173
C       -0.9200126955   -0.3189630771    1.2905156655
C        0.3519133019    0.2544184176   -1.4590314741
C        0.2010335660   -1.2707570248    0.8658655914
C       -1.6602868162    0.2500440571    0.0761673220
N       -2.8684345016    1.0746391912    0.5342094241
O       -3.2915333336    1.9346054603   -0.2381940476
O       -3.3653227573    0.7989413047    1.6258383995
O        2.3414612146   -1.4072789983   -0.7525576938
O        1.9491818784    0.7225544574    0.6194361915
S        1.4312819053   -0.4158427770   -0.1610362735
H       -0.3572431599    1.9321243146   -0.3040090721
H       -1.3885488114    1.4970762977   -1.6665526396
H       -1.6198544019   -0.8598157914    1.9294840143
H       -0.4984799326    0.4989957746    1.8815373569
H       -0.0065836541   -0.5978546451   -2.0438673957
H        1.0059509145    0.8623612006   -2.0894057052
H        0.7583913793   -1.6433132659    1.7291719324
H       -0.1577932025   -2.1250889457    0.2842589037
H       -2.1260511830   -0.5658905120   -0.4902074971
20   
torsion grid (45,)
C       -0.7768993699    1.0973805074   -0.8418835913
C       -0.9281421895   -0.3366623018    1.2891433895
C        0.3568096601    0.2707419408   -1.4515660165
C        0.1937725084   -1.2842674923    0.8547879136
C       -1.6606636962    0.2449258378    0.0794413029
N       -2.8653205702    1.0775676716    0.5215387915
O       -3.4371789345    1.7282677867   -0.3541040332
O       -3.1994237273    1.0344307288    1.7047936233
O        2.3414851066   -1.4016929376   -0.7554650641
O        1.9443918086    0.7120490965    0.6394871692
S        1.4292903055   -0.4168851977   -0.1561381817
H       -0.3524432860    1.9309124451   -0.2740699337
H       -1.3871477027    1.5141387140   -1.6450447887
H       -1.6296388078   -0.8862254565    1.9200908611
H       -0.5098000809    0.4713664615    1.8946052357
H       -0.0006121689   -0.5733504875   -2.0486726308
H        1.0144003953    0.8864069750   -2.0706751112
H        0.7482588414   -1.6688877162    1.7146139297
H       -0.1623535711   -2.1306083131    0.2599774506
H       -2.1207400156   -0.5595791964   -0.5064999306
20   
torsion grid (60,)
C       -0.7745874444    1.1059024849   -0.8261894316
C       -0.9353007625   -0.3509344965    1.2854599638
C        0.3624623374    0.2889651911   -1.4422099201
C        0.1852639855   -1.2977474112    0.8450799683
C       -1.6637091763    0.2364236836    0.0772181417
N       -2.8592690456    1.0768795097    0.5107293268
O       -3.5767688885    1.5046394543   -0.3954147759
O       -3.0305305271    1.2804898429    1.7118831795
O        2.3380651879   -1.3991555826   -0.7601390683
O        1.9428410572    0.6955159067    0.6627981938
S        1.4268136409   -0.4201100757   -0.1504331989
H       -0.3546220721    1.9308053145   -0.2424946090
H       -1.3836190180    1.5310504049   -1.6272128775
H       -1.6395553796   -0.9043394365    1.9118065011
H       -0.5182428858    0.4516320832    1.8976412682
H        0.0068160658   -0.5455767591   -2.0534936777
H        1.0242137503    0.9130752403   -2.0483164591
H        0.7363360291   -1.6931449219    1.7022128953
H       -0.1699131485   -2.1363323815    0.2389048740
H       -2.1186492001   -0.5580089851   -0.5234699092
20   
torsion grid (75,)
C       -0.7712494338    1.1141465955   -0.8133206680
C       -0.9443545967   -0.3643574637    1.2788369473
C        0.3700425749    0.3052328831   -1.4327866294
C        0.1766144709   -1.3096463004    0.8369149935
C       -1.6675513298    0.2298321513    0.0700994039
N       -2.8531436483    1.0760872840    0.5040326180
O       -3.7128739680    1.2845327243   -0.3544493651
O       -2.8693219037    1.5161749506    1.6531214074
O        2.3347945354   -1.3989961349   -0.7613177108
O        1.9415421220    0.6807166266    0.6834858387
S        1.4248500458   -0.4237914514   -0.1438092092
H       -0.3577851606    1.9310243146   -0.2144151173
H       -1.3738354941    1.5486456376   -1.6156315744
H       -1.6530626384   -0.9219717458    1.8980120088
H       -0.5308256966    0.4348074143    1.8968135110
H        0.0178519243   -0.5194191878   -2.0591125099
H        1.0375602709    0.9375378904   -2.0239488855
H        0.7231688651   -1.7127866747    1.6933680190
H       -0.1756406637   -2.1423228737    0.2210922195
H       -2.1187357701   -0.5554175738   -0.5426249122
20   
torsion grid (90,)
C       -0.7650060642    1.1218117186   -0.8056614307
C       -0.9563156442   -0.3782389539    1.2688691647
C        0.3795912099    0.3174775547   -1.4253249155
C        0.1684809456   -1.3191835776    0.8282930249
C       -1.6704624087    0.2286942455    0.0589478798
N       -2.8468491763    1.0774287433    0.5033114095
O       -3.8331773496    1.0808249278   -0.2361710606
O       -2.7275139850    1.7306931414    1.5399753888
O        2.3368037426   -1.3955336079   -0.7559450103
O        1.9361509476    0.6711041976    0.7054291062
S        1.4240014783   -0.4248960872   -0.1356082974
H       -0.3575021266    1.9308427523   -0.1930472904
H       -1.3578785831    1.5673490923   -1.6102706976
H       -1.6715049265   -0.9450642240    1.8732866238
H       -0.5509586711    0.4164792780    1.8977227790
H        0.0312500684   -0.5003434178   -2.0625705091
H        1.0524984543    0.9548015574   -2.0049100841
H        0.7087372689   -1.7288072463    1.6857223425
H       -0.1788643003   -2.1470201810    0.2033151465
H       -2.1234363748   -0.5483908468   -0.5610031847
20   
torsion grid (105,)
C       -0.7549550889    1.1322861205   -0.8019914180
C       -0.9680503201   -0.3844154098    1.2560431864
C        0.3920528947    0.3290970699   -1.4192059525
C        0.1574044789   -1.3256852054    0.8195980847
C       -1.6713663078    0.2340921211    0.0430474253
N       -2.8452073883    1.0730468981    0.5060847683
O       -3.9247406716    0.8866667125   -0.0587244497
O       -2.6350076050    1.8987939862    1.3955622741
O        2.3359088805   -1.3982462056   -0.7498732529
O        1.9347870105    0.6567158845    0.7282060023
S        1.4237153838   -0.4283424598   -0.1273665653
H       -0.3519824044    1.9332653561   -0.1768840548
H       -1.3359201197    1.5907536351   -1.6087639700
H       -1.6904478130   -0.9534538802    1.8502230777
H       -0.5654810580    0.4080717581    1.8903011999
H        0.0481587274   -0.4826955070   -2.0665203394
H        1.0718016047    0.9693641260   -1.9874484673
H        0.6887651720   -1.7432800752    1.6787260974
H       -0.1878635997   -2.1474795187    0.1856526632
H       -2.1235272707   -0.5385263403   -0.5823059241
20   
torsion grid (120,)
C       -0.7415983725    1.1448101624   -0.8008395782
C       -0.9804972395   -0.3877281056    1.2421380892
C        0.4058788456    0.3390076639   -1.4144424637
C        0.1451571109   -1.3304572759    0.8107912180
C       -1.6699824573    0.2452328908    0.0256368117
N       -2.8456329781    1.0681403965    0.5116737384
O       -3.9704570601    0.7087379105    0.1585502092
O       -2.5956278330    2.0372366200    1.2299184245
O        2.3333659933   -1.4050788456   -0.7427492518
O        1.9343923924    0.6427892848    0.7464706962
S        1.4231979611   -0.4332018003   -0.1204160152
H       -0.3411590414    1.9381581230   -0.1655339372
H       -1.3101124325    1.6156963540   -1.6095194671
H       -1.7123267580   -0.9587941208    1.8228122885
H       -0.5805897494    0.3997448316    1.8852704389
H        0.0641270662   -0.4666927973   -2.0704949726
H        1.0943079123    0.9791930820   -1.9722400759
H        0.6666903588   -1.7561291640    1.6720047687
H       -0.1993281217   -2.1462839136    0.1688226170
H       -2.1217610918   -0.5243522304   -0.6034931534
20   
torsion grid (135,)
C       -0.9262410246    0.8963240080   -1.0019619240
C       -0.7953308558   -0.0958636190    1.3605644223
C        0.2012141243    0.0202641049   -1.5541065433
C        0.3472064879   -1.0551239592    1.0199681861
C       -1.6731845001    0.1843930007    0.1303886414
N       -2.8463620872    1.0284423551    0.5871382493
O       -3.9191982895    0.4465249343    0.7595781149
O       -2.6417201824    2.2267569561    0.7844242117
O        2.3376330548   -1.3961025960   -0.7501840375
O        1.9419908762    0.9323712344    0.2442010219
S        1.4261802027   -0.3510111414   -0.2631472513
H       -0.5190750267    1.8413361508   -0.6370969604
H       -1.6223569948    1.1253191803   -1.8153705116
H       -1.4066818534   -0.5448390880    2.1498842297
H       -0.3880633302    0.8450850030    1.7397189311
H       -0.1486716661   -0.9401039516   -1.9436455856
H        0.7629830926    0.5344190168   -2.3382672013
H        1.0006173586   -1.2246025583    1.8797690532
H       -0.0018724742   -2.0217784059    0.6458420860
H       -2.1310224065   -0.7417815588   -0.2233367472
20   
torsion grid (150,)
C       -0.9142592960    0.9110053688   -1.0013978439
C       -0.8046160735   -0.1054348106    1.3541332753
C        0.2115986379    0.0313600119   -1.5522898019
C        0.3349667281   -1.0675217398    1.0123203602
C       -1.6711062943    0.1957931277    0.1194602396
N       -2.8487836266    1.0288538182    0.5913679847
O       -3.8211930123    0.4065486300    1.0235358136
O       -2.7453730651    2.2548046371    0.5491365287
O        2.3382699728   -1.3991647056   -0.7461558321
O        1.9419548920    0.9201452432    0.2691630911
S        1.4260303047   -0.3561861977   -0.2560801443
H       -0.5022922257    1.8512382586   -0.6306701075
H       -1.6033115803    1.1522961601   -1.8166931657
H       -1.4281070284   -0.5589475882    2.1303419000
H       -0.3920969296    0.8277004007    1.7481393206
H       -0.1404790140   -0.9244772525   -1.9510625734
H        0.7818058098    0.5475577783   -2.3289590072
H        0.9815561785   -1.2487462425    1.8748610826
H       -0.0178526117   -2.0283403155    0.6268283737
H       -2.1286672610   -0.7284555162   -0.2416191085
20   
torsion grid (165,)
C       -0.9026295742    0.9263843721   -0.9923472209
C       -0.8103344140   -0.1170628417    1.3520739211
C        0.2201781641    0.0448792974   -1.5472515213
C        0.3259101596   -1.0805734456    1.0051761269
C       -1.6678370182    0.2052272061    0.1168700027
N       -2.8558843767    1.0296799376    0.5886185264
O       -3.6952713721    0.4305743016    1.2638791572
O       -2.8963605875    2.2234614083    0.2934650906
O        2.3347675243   -1.4077068488   -0.7474780192
O        1.9496706987    0.9047625163    0.2878099125
S        1.4273119551   -0.3634399923   -0.2509971488
H       -0.4834175614    1.8597629489   -0.6114888963
H       -1.5845901808    1.1851477260   -1.8071561615
H       -1.4422296041   -0.5739296216    2.1181347703
H       -0.3929403356    0.8085213396    1.7598768818
H       -0.1358786816   -0.9048303960   -1.9570916195
H        0.7959029400    0.5656471134   -2.3167246221
H        0.9664427286   -1.2756616326    1.8691711460
H       -0.0303182229   -2.0350277977    0.6069642718
H       -2.1244477358   -0.7157865248   -0.2571442123
20   
torsion grid (180,)
C       -0.8943493155    0.9378427856   -0.9818727769
C       -0.8126342513   -0.1335364825    1.3507303932
C        0.2295446047    0.0595275512   -1.5400414288
C        0.3187027788   -1.0990817437    0.9936884970
C       -1.6659498559    0.2116804106    0.1200770984
N       -2.8620648219    1.0381267752    0.5857434962
O       -3.5537831796    0.5406048409    1.4759304140
O       -3.0647682913    2.1283337730    0.0532058820
O        2.3400401081   -1.4049355313   -0.7503041343
O        1.9494108626    0.8932374681    0.3152989968
S        1.4297644829   -0.3675165358   -0.2443629188
H       -0.4738880924    1.8677784936   -0.5923443507
H       -1.5711500106    1.2043910383   -1.7971198582
H       -1.4475097523   -0.5931345051    2.1110903751
H       -0.3886696033    0.7834963053    1.7711032013
H       -0.1286342432   -0.8839896376   -1.9623392423
H        0.8094076557    0.5869157529   -2.3018405733
H        0.9533944765   -1.3122018321    1.8577093597
H       -0.0412185046   -2.0450000288    0.5785146735
H       -2.1276005417   -0.7025098318   -0.2685067187
