15   
torsion grid (-165,)
C       -0.0099926366   -0.2529285854   -0.1257595377
C       -0.3892978681    0.6661839485    2.2157075819
C       -0.9602555146    0.4591516914    0.8139300118
C       -0.4339831039   -0.3663609319   -1.5978138459
N       -0.4625870015    0.9719327489   -2.2980138697
O       -1.0540437891    1.0181343947   -3.3748552109
O        1.0219474907   -0.7887793850    0.2319831156
O        0.1338110468    1.9090472831   -1.7639082209
H        0.5083904920    1.2891718734    2.1788771517
H       -0.1123322562   -0.2870306708    2.6725477796
H       -1.1262378879    1.1594856505    2.8559211341
H       -1.8787840079   -0.1459847332    0.8488138112
H       -1.2534376646    1.4118470422    0.3591679552
H        0.2920819971   -0.9706865864   -2.1437600923
H       -1.4315697514   -0.7928534186   -1.7186624402
15   
torsion grid (-150,)
C        0.1144980335   -0.2043885012   -0.0615007017
C       -0.4527192172    0.5312040831    2.3041480077
C       -0.8006399533    0.6201898066    0.8187395803
C       -0.2615677869   -0.3730815393   -1.5428847121
N       -0.6290903977    0.9063667230   -2.2486006897
O       -1.4389987539    0.8249583143   -3.1715340635
O        1.0856701452   -0.8094867406    0.3523280435
O       -0.0515032542    1.9349171539   -1.8895113848
H        0.5669452192    0.8795325859    2.4859575194
H       -0.5186787955   -0.4986569463    2.6652892024
H       -1.1396362884    1.1493765695    2.8892016285
H       -1.8327938074    0.2935633568    0.6273339046
H       -0.7541419840    1.6564114687    0.4650787406
H        0.5983067859   -0.7730367407   -2.0827651699
H       -1.1103841522   -1.0492544624   -1.6590602916
15   
torsion grid (-135,)
C        0.1781939609   -0.1476199166   -0.0584880860
C       -0.4710927338    0.5375671028    2.2993245267
C       -0.6976750190    0.7377382406    0.8011721768
C       -0.1473920304   -0.2796628701   -1.5571919445
N       -0.7173104026    0.9580063137   -2.1903610283
O       -1.6908170420    0.8246909196   -2.9326782203
O        1.0876558466   -0.8285761847    0.3758220151
O       -0.1379812173    2.0205743792   -1.9507049546
H        0.5667001504    0.7489670246    2.5677714615
H       -0.6862134974   -0.4920626833    2.5980989327
H       -1.1205623447    1.2073926636    2.8700343267
H       -1.7449975243    0.5553925640    0.5220176382
H       -0.4991330821    1.7753893536    0.5079616684
H        0.7743453880   -0.5014690553   -2.0966679365
H       -0.8693799411   -1.0822474577   -1.7147971556
15   
torsion grid (-120,)
C        0.1448393348   -0.1919713561   -0.0608917399
C       -0.5111162423    0.5599851801    2.2725319898
C       -0.6960948765    0.7522192205    0.7680027624
C       -0.0979091143   -0.2757442526   -1.5816581586
N       -0.7719083663    0.9274794280   -2.1692479130
O       -1.8560666158    0.7651753389   -2.7321473674
O        0.9757356938   -0.9486263534    0.4027781023
O       -0.1776437206    2.0030662432   -2.0543495705
H        0.5309001465    0.7187732052    2.5606394663
H       -0.7873179618   -0.4527834514    2.5780279106
H       -1.1351645592    1.2708745934    2.8213825958
H       -1.7455569708    0.6204844312    0.4690790947
H       -0.4387793492    1.7741692330    0.4639318570
H        0.8659559401   -0.3716082171   -2.0817194043
H       -0.7246303372   -1.1407587747   -1.8009722494
15   
torsion grid (-105,)
C        0.1363029765   -0.2294821760   -0.1001781728
C       -0.5020104619    0.5413480745    2.2312294171
C       -0.6518989822    0.7593065351    0.7266607987
C       -0.0233388971   -0.2280830253   -1.6368044641
N       -0.7831895250    0.9475377680   -2.1664361395
O       -1.9434801719    0.7604327490   -2.5395419569
O        0.8831206251   -1.0680769865    0.3647137328
O       -0.1947125425    2.0324560454   -2.1700190014
H        0.5435491359    0.6280807080    2.5368815147
H       -0.8492530581   -0.4537542395    2.5215290436
H       -1.0867565987    1.2863915830    2.7779676648
H       -1.7030554042    0.6987251702    0.4127260897
H       -0.3257925022    1.7658355631    0.4350317058
H        0.9692822567   -0.2000313959   -2.0856475122
H       -0.5571276454   -1.1289832072   -1.9385862530
15   
torsion grid (-90,)
C        0.1264967118   -0.2536041701   -0.1058390039
C       -0.4796572149    0.5347527530    2.2283327984
C       -0.6677715865    0.7267802167    0.7246499157
C        0.0182271765   -0.1995121510   -1.6470674146
N       -0.7435253599    0.9852696664   -2.1495842894
O       -1.9620269029    0.8557092519   -2.2950742192
O        0.8479336161   -1.1161347230    0.3548413163
O       -0.1054123475    2.0238039097   -2.3400505072
H        0.5688297547    0.6572779236    2.5116393847
H       -0.7904253957   -0.4662769053    2.5381971424
H       -1.0757894052    1.2691246625    2.7772179147
H       -1.7224817882    0.6289744680    0.4349986376
H       -0.3804527597    1.7395407594    0.4119376703
H        1.0218116135   -0.1515331318   -2.0670164117
H       -0.5044535484   -1.0932489694   -1.9883930564
15   
torsion grid (-75,)
C        0.0629175971   -0.3224497763   -0.1300516678
C       -0.4277038048    0.4536452042    2.2350321436
C       -0.6080928910    0.7139648947    0.7405846866
C        0.0790694435   -0.1273480480   -1.6628963856
N       -0.8038379263    0.9830985447   -2.1379681847
O       -2.0185069254    0.7642090077   -2.1406409445
O        0.6317162842   -1.3088423352    0.2946911011
O       -0.2672587965    2.0487158140   -2.4501540393
H        0.6304058036    0.4539548705    2.5097161729
H       -0.8412565349   -0.5181191388    2.5158774862
H       -0.9371831421    1.2286043077    2.8145336457
H       -1.6702369419    0.7385849532    0.4651950970
H       -0.2165951613    1.6992741993    0.4526578378
H        1.0966318267    0.1013221839   -1.9791655865
H       -0.2730999683   -1.0461869931   -2.1308860158
15   
torsion grid (-60,)
C       -0.2816348291   -0.0720202359   -0.0610571135
C        0.2800058772    0.2901392100    2.3868981373
C        0.6612130340    0.5667548894    0.9333647018
C        0.0958742059   -0.0741894437   -1.5571613186
N        1.0752795486    0.9903928001   -1.9481604801
O        0.7283964146    2.1588754995   -1.7535288437
O       -1.3068149037   -0.6488763206    0.2454044000
O        2.1589331567    0.6341258144   -2.4146356462
H        0.2833335425   -0.7824262550    2.5988347541
H       -0.7222844379    0.6665129360    2.6055043563
H        0.9891214960    0.7797292626    3.0602903354
H        0.6779150659    1.6435403372    0.7258477005
H        1.6780789523    0.2159077063    0.7076805868
H        0.5372171998   -1.0364881995   -1.8183353722
H       -0.8087157400    0.0972751399   -2.1408959187
15   
torsion grid (-45,)
C       -0.3021629224   -0.0164261330   -0.0592731746
C        0.2297334377    0.2701187743    2.4076830395
C        0.6584893664    0.5450501239    0.9665973809
C        0.1497189024   -0.0965709467   -1.5286748013
N        1.0311577527    1.0343687295   -1.9786949692
O        0.6869795424    2.1725023328   -1.6498993634
O       -1.3902543687   -0.4850045647    0.2162086528
O        2.0244179500    0.7525583550   -2.6498351401
H        0.1641095592   -0.8037612405    2.6031840137
H       -0.7525885825    0.7031021299    2.6109033740
H        0.9519314230    0.7059717960    3.1038577505
H        0.7413421960    1.6221446424    0.7795885656
H        1.6578589057    0.1386587019    0.7568107838
H        0.7015774950   -1.0212849826   -1.7037874773
H       -0.7343886633   -0.0689257771   -2.1671460496
15   
torsion grid (-30,)
C       -0.2499240092   -0.0886382105   -0.0607915070
C        0.1956652543    0.3029480435    2.4111007035
C        0.7392713348    0.3815287483    0.9850471710
C        0.2432183827   -0.2211582645   -1.5112066566
N        0.9208982984    1.0127184359   -2.0501364479
O        0.5508578534    2.1010704509   -1.6042808452
O       -1.3857551009   -0.4426443344    0.1940494483
O        1.7758786115    0.8476624416   -2.9194223837
H       -0.0730406280   -0.7230894541    2.6761989107
H       -0.7017433634    0.9171179283    2.5191186406
H        0.9474022671    0.6600072732    3.1208249606
H        1.0305330868    1.4069605706    0.7310912202
H        1.6534949198   -0.2184604431    0.8712367205
H        0.9571711490   -1.0395991341   -1.6183919557
H       -0.6145953835   -0.3983392666   -2.1621389691
15   
torsion grid (-15,)
C       -0.1517782582   -0.1519939007   -0.0954236550
C        0.1825973977    0.4182423081    2.3611158415
C        0.8345829225    0.2085296298    0.9955042010
C        0.3872925484   -0.2203240936   -1.5321456577
N        0.7765039826    1.1375056833   -2.0684284531
O        0.3739751036    2.1302959574   -1.4589901071
O       -1.3132973521   -0.4484126268    0.1119716453
O        1.4521421824    1.1507512863   -3.0954184150
H       -0.3597554838   -0.4753305303    2.6795611871
H       -0.5323593576    1.2445681155    2.3247330864
H        0.9427536049    0.6517526322    3.1120880530
H        1.3942108883    1.0964434740    0.6810962521
H        1.5720996938   -0.6074033741    1.0332001238
H        1.2773515154   -0.8460670464   -1.6216093609
H       -0.3909489582   -0.5918341489   -2.2005059463
15   
torsion grid (0,)
C       -0.1693148004   -0.1450728919   -0.0477739387
C        0.2020468844    0.4246849808    2.4033893620
C        0.0774407877    0.9447170126    0.9726132488
C       -0.1400109515    0.2618310831   -1.5286467385
N        1.2711152532    0.4513259075   -2.0401972828
O        2.2017284088    0.2682529539   -1.2536529226
O       -0.4365475000   -1.2968087416    0.2394419939
O        1.3820843782    0.7726509659   -3.2210036443
H        1.0490543927   -0.2608433505    2.4924346316
H       -0.6969193883   -0.1193095286    2.7036750222
H        0.3553564630    1.2558828136    3.0976145457
H       -0.7588390333    1.6546766144    0.8830706780
H        0.9707763626    1.5028365904    0.6699017526
H       -0.5779734794   -0.5234101504   -2.1452253475
H       -0.6500781326    1.2083037480   -1.7217573488
15   
torsion grid (15,)
C       -0.1923848658   -0.2026262827   -0.0616294854
C        0.1930849297    0.3929718066    2.3813682669
C        0.1053566934    0.8929279518    0.9404285049
C       -0.1363305661    0.1751721368   -1.5494340115
N        1.2677737680    0.4826382310   -2.0149900244
O        2.2005578095    0.1354099643   -1.2880625591
O       -0.5311266839   -1.3295855318    0.2469485630
O        1.3765226978    1.0402688175   -3.1052159030
H        1.0027687978   -0.3337207917    2.4892153940
H       -0.7349708531   -0.0976036824    2.6848062844
H        0.3853257156    1.2280034845    3.0611397802
H       -0.6935407260    1.6420332887    0.8322501281
H        1.0278642201    1.4011986165    0.6386543840
H       -0.4729505713   -0.6666634663   -2.1563811443
H       -0.7322292278    1.0589931052   -1.7850781698
15   
torsion grid (30,)
C       -0.1342277772   -0.2972673351   -0.0115494855
C        0.0745915847    0.4131886399    2.4202783670
C        0.2763590030    0.7944990748    0.9542635746
C       -0.1421409765    0.0343211588   -1.5130339852
N        1.1453663678    0.6300103865   -2.0225625373
O        2.1868708854    0.2956019911   -1.4536448299
O       -0.5334593615   -1.3926022625    0.3366328619
O        1.0683368040    1.3859306044   -2.9903147396
H        0.6572718883   -0.4757634366    2.6741728968
H       -0.9749546870    0.1906814942    2.6304614329
H        0.3930533055    1.2334439341    3.0699486254
H       -0.2913935082    1.6992722253    0.6939046767
H        1.3249547579    1.0407293941    0.7526249983
H       -0.2882660171   -0.8875289899   -2.0785342772
H       -0.9328654606    0.7439934658   -1.7623994857
15   
torsion grid (45,)
C       -0.0635053363   -0.3497825744    0.0012517392
C        0.0432082516    0.4468211198    2.4106188386
C        0.4385639261    0.7101065177    0.9578588645
C       -0.0183984164   -0.0621543814   -1.5103417778
N        1.1648725892    0.7467945731   -1.9619804686
O        2.2653877719    0.4237786449   -1.5076274657
O       -0.5774008536   -1.3937423158    0.3554578769
O        0.9599693414    1.6638450450   -2.7578692205
H        0.4366293109   -0.5131506305    2.7532650293
H       -1.0437971113    0.4183896516    2.5261718563
H        0.4402330781    1.2351173120    3.0564974754
H        0.0723375021    1.6858264704    0.6089115631
H        1.5285016922    0.7567725255    0.8491242517
H        0.0376240826   -1.0117805496   -2.0443138011
H       -0.9132197183    0.4809913005   -1.8179231033
15   
torsion grid (60,)
C       -0.1152799248   -0.3302600089   -0.0076214328
C        0.0632121337    0.4956113429    2.3851867687
C        0.4671209315    0.7060605093    0.9266263358
C        0.0038739821   -0.1191552215   -1.5311391602
N        1.1159180199    0.7981157694   -1.9410966802
O        2.2578645245    0.4583100711   -1.6186838235
O       -0.7353943537   -1.3083718155    0.3620906632
O        0.8198123328    1.8291623839   -2.5477081177
H        0.3928429774   -0.4824820485    2.7438600542
H       -1.0225081643    0.5424877700    2.5051298672
H        0.5159418051    1.2668319256    3.0146992754
H        0.1654402039    1.6979214443    0.5618108327
H        1.5572968747    0.6781482431    0.8096656215
H        0.2008481778   -1.0845522007   -1.9977761056
H       -0.9257752173    0.3027753101   -1.9141051778
15   
torsion grid (75,)
C       -0.0263030310   -0.3439781003   -0.0535249725
C       -0.2694594154    0.5722936525    2.2997323374
C       -0.5484433298    0.7788185728    0.8120490211
C       -0.3413069251   -0.3427287448   -1.5664626139
N       -0.9514886420    0.9333929836   -2.0535845918
O       -0.1945722841    1.9010675738   -2.1719751375
O        0.6144900356   -1.2885645443    0.3636355868
O       -2.1673169639    0.9454282902   -2.2599460750
H        0.8038331750    0.4931270065    2.4894769567
H       -0.7377597554   -0.3457472931    2.6643298243
H       -0.6627246441    1.4150113380    2.8751693759
H       -1.6240580751    0.8832804012    0.6141267998
H       -0.1003825594    1.7121522294    0.4478319427
H        0.5907804658   -0.4869865052   -2.1121287085
H       -1.0432542290   -1.1480171973   -1.7820091469
15   
torsion grid (90,)
C       -0.1161335230   -0.3652262526   -0.0240129358
C       -0.3193343239    0.6561160187    2.2896485301
C       -0.5381664786    0.8361613427    0.7886066619
C       -0.2549620902   -0.3242056541   -1.5631823868
N       -0.9860326907    0.8802719381   -2.0642321927
O       -0.3154358120    1.8827063260   -2.3251478431
O        0.3535986172   -1.3815490551    0.4482964918
O       -2.2149383987    0.8008135638   -2.1393576044
H        0.7353585267    0.4772725700    2.5138971123
H       -0.8868658442   -0.1971871319    2.6696254387
H       -0.6411390009    1.5535431689    2.8253887404
H       -1.5925525196    1.0409289173    0.5599031157
H        0.0099951537    1.7062621319    0.4034875923
H        0.7439410516   -0.3055061509   -1.9994247353
H       -0.8049870931   -1.2058588829   -1.8887993086
15   
torsion grid (105,)
C       -0.1422785257   -0.3626772987   -0.0147859123
C       -0.3141720973    0.6839782292    2.2899037881
C       -0.5744921553    0.8390580779    0.7925734003
C       -0.2069754647   -0.3013313736   -1.5570683878
N       -0.9332572491    0.8954469828   -2.0863232824
O       -0.2599345382    1.8082957452   -2.5699282582
O        0.2913455350   -1.3905715258    0.4674373075
O       -2.1627372219    0.8907269357   -1.9784296946
H        0.7506912381    0.5408909325    2.4917091202
H       -0.8454243042   -0.1823002266    2.6917725450
H       -0.6518019330    1.5768776630    2.8234693394
H       -1.6397587325    1.0064781506    0.5882105486
H       -0.0642179080    1.7218363324    0.3834047534
H        0.8076108719   -0.2737336587   -1.9538311586
H       -0.7362882945   -1.1843161624   -1.9144488726
15   
torsion grid (120,)
C       -0.1671478912   -0.3858241043   -0.0219026859
C       -0.2822949077    0.6424769547    2.2956659911
C       -0.5268037589    0.8317635000    0.7993437979
C       -0.1266631426   -0.2660577024   -1.5588846914
N       -0.9450395775    0.8626360821   -2.1105772996
O       -0.3639010792    1.7313007097   -2.7634763225
O        0.1541816092   -1.4573707318    0.4540748656
O       -2.1559864018    0.8319593313   -1.8744451776
H        0.7688229123    0.4204893961    2.4988513887
H       -0.8761436104   -0.1874947404    2.6860616072
H       -0.5566728839    1.5512870508    2.8386231106
H       -1.5797793991    1.0629468347    0.5962702231
H        0.0355908575    1.6881792297    0.4018451138
H        0.9024031303   -0.1118403454   -1.8848760932
H       -0.5260977842   -1.1847602332   -1.9887554818
15   
torsion grid (135,)
C       -0.2132672705   -0.3939142502   -0.0154666002
C       -0.2831121994    0.5942619980    2.3231768135
C       -0.5046632625    0.8274896949    0.8290796332
C       -0.0993660591   -0.2287126648   -1.5416970377
N       -0.9969900046    0.8222926134   -2.1310258737
O       -0.5099170742    1.5923216010   -2.9594870702
O        0.0141761505   -1.4970133473    0.4437002192
O       -2.1764500985    0.8103672760   -1.7693523067
H        0.7541909477    0.3177753156    2.5310972544
H       -0.9198737541   -0.2144913324    2.6895476536
H       -0.5191086198    1.5030463940    2.8840732439
H       -1.5404007472    1.1243604434    0.6260946610
H        0.1112007533    1.6565225809    0.4529210030
H        0.9237963682    0.0332941504   -1.8151338308
H       -0.3787806649   -1.1699359204   -2.0169108304
15   
torsion grid (150,)
C       -0.2338407398   -0.3273617341   -0.0619080462
C       -0.3294570374    0.5573194902    2.3185817099
C       -0.4372782799    0.8800543978    0.8286343422
C       -0.0721243187   -0.0973378129   -1.5735336418
N       -1.0900847391    0.8306436509   -2.1838893181
O       -0.7337917533    1.4887428074   -3.1608103721
O       -0.1082294740   -1.4627448991    0.3573964861
O       -2.2234057651    0.8237214896   -1.6981117346
H        0.6559215692    0.1532366368    2.5660815835
H       -1.0738350952   -0.1878041795    2.6096134399
H       -0.4933516868    1.4612775952    2.9121103170
H       -1.4187826048    1.3043461211    0.5883642763
H        0.2917587908    1.6462220529    0.5287553963
H        0.9095916385    0.3203719795   -1.8037562747
H       -0.1916725236   -1.0504819693   -2.0912533531
15   
torsion grid (165,)
C       -0.0945608542   -0.2963791056   -0.0911352207
C       -0.4634855833    0.5619240593    2.2749640737
C       -0.1764761385    0.9133675702    0.8161354521
C        0.0347746957   -0.0341156778   -1.5991110272
N       -1.2083719590    0.5903199174   -2.1878705255
O       -1.0976351344    1.0910181756   -3.3052586725
O       -0.0590551918   -1.4438619811    0.3113488299
O       -2.2477948164    0.5244280954   -1.5287481447
H        0.2993722764   -0.1102761248    2.6752308500
H       -1.4299495215    0.0593594790    2.3681099660
H       -0.4853478301    1.4689225954    2.8858596024
H       -0.9311839236    1.5997732009    0.4166279598
H        0.7837842918    1.4423670627    0.7207474383
H        0.8572159380    0.6414431004   -1.8417193045
H        0.1691022174   -0.9799287884   -2.1262512627
15   
torsion grid (180,)
C       -0.1043047618   -0.2308673680   -0.0780749154
C       -0.4648900064    0.5965937774    2.3001097786
C       -0.1312313059    0.9603724452    0.8546204358
C        0.0572522982    0.0575846558   -1.5781256037
N       -1.2261792195    0.5560906362   -2.2050299079
O       -1.1806575003    0.8105510833   -3.4063084705
O       -0.1504149710   -1.3878133919    0.2958045547
O       -2.2199919125    0.6609977139   -1.4842289048
H        0.2513421442   -0.1259676940    2.6990569219
H       -1.4595009589    0.1473771934    2.3652980922
H       -0.4470475210    1.4903046495    2.9304309474
H       -0.8382105528    1.6952711422    0.4530512305
H        0.8592299827    1.4355269532    0.7866887147
H        0.8032075173    0.8277651405   -1.7869910291
H        0.3145162954   -0.8569563396   -2.1129593286
