21   
torsion grid (-165,)
C        1.7671153443   -1.1187040331   -0.1871936710
C        2.9035304261   -1.4828994470    0.5398989493
C        0.5849068121   -0.7571962187    0.4648163041
C        1.6864650625   -1.0801069196    2.6327764050
C        2.8345585024   -1.4588934680    1.9267025643
C        0.5686650354   -0.7525914443    1.8536897328
C        1.6443365544   -1.0589975890    4.1275106562
C        3.2521724352    1.4334830434    3.9591253993
O        2.2597649526    0.4407252892    6.2694619948
O        0.6329897568    1.4229571022    4.5473742770
F        3.9239662112   -1.8311958478    2.6388715694
F       -0.5778299631   -0.4392068137    2.4916725651
F        4.3163913982    0.6178568751    3.9557306353
F        2.9083662566    1.7171855702    2.6968849478
F        3.5598162588    2.5635308078    4.5979084379
S        1.8047746342    0.6182272958    4.8901078346
H        1.8001136317   -1.1258350225   -1.2724422720
H        3.8263978893   -1.7828073020    0.0549131141
H       -0.3131929859   -0.4867986290   -0.0802934547
H        2.4243445027   -1.6663718997    4.5849718227
H        0.6567561762   -1.3541319617    4.4925971687
21   
torsion grid (-150,)
C        1.8597478683   -1.1049329407   -0.1545673404
C        2.9452685244   -1.5495951023    0.6049598549
C        0.6832441581   -0.6687154307    0.4614998950
C        1.6845150156   -1.0936692297    2.6604021044
C        2.8309153838   -1.5351964336    1.9888996947
C        0.6215677484   -0.6771900807    1.8487085577
C        1.5903415243   -1.1030905558    4.1525910877
C        3.0771962054    1.4732150525    3.8568621391
O        2.5916535472    0.2873165596    6.2352843583
O        0.6271243730    1.3077388237    4.9419113680
F        3.8693071639   -1.9797542275    2.7334966526
F       -0.5139821195   -0.2734756302    2.4560038363
F        4.1473265990    0.7122779387    3.5839011036
F        2.4833534624    1.8296629266    2.7117655875
F        3.4677215257    2.5680066673    4.5115287915
S        1.8661936256    0.5315819398    4.9880826157
H        1.9291457258   -1.1036388632   -1.2381086275
H        3.8630722618   -1.9027286733    0.1469505619
H       -0.1736218487   -0.3280117229   -0.1099576239
H        2.3099173681   -1.7791554475    4.6121731839
H        0.5711128149   -1.3300017312    4.4747953232
21   
torsion grid (-135,)
C        1.9385731486   -1.1551338075   -0.1572177568
C        2.9812658517   -1.6315535258    0.6423997224
C        0.7685418220   -0.6488865438    0.4165043398
C        1.6833992590   -1.0823952813    2.6504750212
C        2.8292783808   -1.5831626166    2.0218479315
C        0.6690260974   -0.6248304610    1.8009440873
C        1.5345104799   -1.0762184122    4.1375798824
C        2.9521276726    1.5527682022    3.7595783632
O        2.9336418058    0.1856852603    6.0820060185
O        0.7525313430    1.2632229136    5.2715315298
F        3.8283570459   -2.0447462747    2.8075222426
F       -0.4547600961   -0.1381962280    2.3706905671
F        4.0128834626    0.8717552711    3.3028133455
F        2.1740957125    1.9085251734    2.7293062268
F        3.3713043518    2.6486737326    4.3940444554
S        1.9788258824    0.5051831008    5.0198095204
H        2.0381184607   -1.1794676611   -1.2381368379
H        3.8959665962   -2.0312687266    0.2177384503
H       -0.0527113473   -0.2752655382   -0.1857936935
H        2.1647822516   -1.8256696180    4.6150936252
H        0.4868767846   -1.1939216215    4.4205328948
21   
torsion grid (-120,)
C        2.0313096481   -1.1843524815   -0.1432686961
C        3.0241509548   -1.6964479004    0.6971314148
C        0.8654633329   -0.6204169398    0.3828859299
C        1.6802237996   -1.0719248889    2.6520855707
C        2.8255788309   -1.6270579939    2.0693715886
C        0.7193353979   -0.5767608415    1.7628249595
C        1.4761508621   -1.0484897244    4.1312818658
C        2.8124494497    1.6248869578    3.7416088269
O        3.2707722931    0.0321305989    5.8563926000
O        0.9706875017    1.1451685764    5.6451514406
F        3.7776194373   -2.1135254471    2.8958994024
F       -0.4007328642   -0.0317131656    2.2874968375
F        3.8252453593    1.0509988906    3.0781048580
F        1.8571389111    1.9852777182    2.8734062037
F        3.2601178418    2.7077079093    4.3789042440
S        2.1124651469    0.4405084333    5.0603158086
H        2.1678728138   -1.2247154923   -1.2196421992
H        3.9362462192   -2.1370999488    0.3088998569
H        0.0835368465   -0.2174019663   -0.2518999750
H        2.0057591667   -1.8669003488    4.6207201794
H        0.4180431122   -1.0587742748    4.3943720548
21   
torsion grid (-105,)
C        2.3156881467   -1.0271510999   -0.1882522375
C        3.3633718212   -1.5441392826    0.5788333708
C        1.1277959807   -0.6014058171    0.4134466529
C        2.0227847788   -1.2295285796    2.6091693309
C        3.1923967651   -1.6324833349    1.9541193070
C        1.0103297188   -0.7111655876    1.7924323970
C        1.8798771856   -1.3136439364    4.0930886216
C        1.0468265297   -4.1088116062    3.3854833634
O       -0.4362280002   -2.4702140310    4.9105209528
O        1.7731214735   -3.3480539533    5.8701923553
F        4.2013283722   -2.1241158362    2.7084067851
F       -0.1296099189   -0.3016321679    2.3888329264
F        2.3145878426   -4.3277288620    3.0072119786
F        0.5321174465   -5.2357898784    3.8797850056
F        0.3271304212   -3.7220036760    2.3247232337
S        0.9825986041   -2.7983780069    4.7680167202
H        2.4266557827   -0.9531408367   -1.2657911643
H        4.2950722217   -1.8751050189    0.1325201740
H        0.3040086131   -0.1946954151   -0.1634251849
H        1.2580550233   -0.5021030045    4.4779660390
H        2.8386644652   -1.3257486608    4.6105875751
21   
torsion grid (-90,)
C        2.2615111945   -0.9841274049   -0.2070773547
C        3.3011775380   -1.5666307191    0.5227310213
C        1.1126600999   -0.5108737173    0.4332508996
C        2.0219405749   -1.2411376855    2.5910555609
C        3.1584583001   -1.6780551165    1.8996850495
C        1.0214510135   -0.6447431798    1.8124952089
C        1.8983636712   -1.3787679785    4.0731555856
C        1.1724876387   -4.1929552303    3.4247644347
O       -0.5624385963   -2.4443821530    4.4910299150
O        1.3903490566   -3.2435003436    5.9471766638
F        4.1679171862   -2.2226108025    2.6173560144
F       -0.0728607730   -0.1726411188    2.4445594185
F        2.4914599997   -4.3857438909    3.2765184513
F        0.6141598094   -5.3008085363    3.9149397816
F        0.6298035065   -3.9126085204    2.2336592675
S        0.8487323333   -2.7855947182    4.6672862742
H        2.3503475295   -0.8914240125   -1.2852274976
H        4.2069000505   -1.9279715836    0.0474067479
H        0.2995532293   -0.0451266514   -0.1133682579
H        1.3653939906   -0.5305455058    4.5116713443
H        2.8556049347   -1.5057305138    4.5776511787
21   
torsion grid (-75,)
C        2.1795356181   -0.8879430534   -0.2361411949
C        3.1789818167   -1.5879893009    0.4453828670
C        1.0939958030   -0.3376133532    0.4508065357
C        1.9835071722   -1.2250616675    2.5573638326
C        3.0575155929   -1.7368418509    1.8203838052
C        1.0230462740   -0.5128556146    1.8270706458
C        1.8740596385   -1.4034579155    4.0356597626
C        1.3300007938   -4.2907577518    3.6345981279
O       -0.6067356634   -2.4917575723    4.0940780409
O        1.0268062804   -3.0194748522    6.0004982996
F        4.0240936781   -2.4056583468    2.4924785758
F       -0.0023449401    0.0445805070    2.5035116873
F        2.6366279324   -4.4955818337    3.8504847328
F        0.6347933359   -5.3379050737    4.0819338833
F        1.1160536693   -4.1449634750    2.3204237710
S        0.7436336441   -2.7536205940    4.5898880696
H        2.2511371026   -0.7640508206   -1.3124401775
H        4.0358841487   -2.0133998878   -0.0660445465
H        0.3147511944    0.2205566370   -0.0571912903
H        1.3915476119   -0.5414609071    4.5063343303
H        2.8233958893   -1.5872356943    4.5388487206
21   
torsion grid (-60,)
C        2.1478911252   -0.7891819285   -0.2565553092
C        3.1007176455   -1.5973331099    0.3706036631
C        1.1192205079   -0.1912284686    0.4767343520
C        1.9770628848   -1.2394542026    2.5210913788
C        2.9917842183   -1.8010086201    1.7393290297
C        1.0588327951   -0.4270278028    1.8442871197
C        1.8739616236   -1.4771592778    3.9909711908
C        1.4642259821   -4.3844819657    3.7899523496
O       -0.5695641809   -2.6235015689    3.7241244961
O        0.7154782290   -2.9190586147    5.9268586253
F        3.9093803378   -2.5794779032    2.3617927260
F        0.0884785563    0.1698669454    2.5684006091
F        2.7118053794   -4.5139422490    4.2636462564
F        0.7246858782   -5.4187495982    4.1929062727
F        1.4989139754   -4.3576483673    2.4510399439
S        0.6763443453   -2.7934939826    4.4695126832
H        2.2106063922   -0.6201242683   -1.3272563938
H        3.9108011366   -2.0652627637   -0.1785746016
H        0.3757069464    0.4464358158    0.0104740475
H        1.4452151311   -0.6154864780    4.5107590486
H        2.8175986854   -1.7384208018    4.4712208366
21   
torsion grid (-45,)
C        1.8466887573   -0.8021778435   -0.2410509639
C        2.7991574224   -1.5946161721    0.4063950551
C        0.8597905559   -0.1277273561    0.4837062459
C        1.7622563090   -1.0610171990    2.5635525370
C        2.7329411696   -1.7036859869    1.7888018975
C        0.8409638209   -0.2721685532    1.8646274792
C        1.6976144552   -1.2093939061    4.0467735433
C        1.3423015430   -4.1006239865    4.3397349342
O       -0.6958810657   -2.4581685985    3.6900781654
O        0.2988430057   -2.3058413176    6.0528568932
F        3.6535404706   -2.4623220117    2.4323125399
F       -0.0912312042    0.3920824487    2.5815998676
F        2.5396857108   -4.0726653332    4.9456309073
F        0.5985956126   -5.0728769601    4.8683700441
F        1.5153457883   -4.3309227175    3.0319336379
S        0.4449094707   -2.4459145933    4.6034225170
H        1.8765170848   -0.7060468172   -1.3221520525
H        3.5769701168   -2.1202566891   -0.1372237995
H        0.1164144636    0.4969403225   -0.0000184304
H        1.3446426835   -0.3024118713    4.5441284044
H        2.6459161782   -1.5182842166    4.4881323690
21   
torsion grid (-30,)
C        1.7654500380   -0.7166747209   -0.1939655320
C        2.7080287609   -1.5621216471    0.3985141013
C        0.8143249881   -0.0457060596    0.5804538746
C        1.7390129820   -1.0850727351    2.5994164178
C        2.6703929682   -1.7259883687    1.7769167617
C        0.8231472526   -0.2469464962    1.9538514129
C        1.6982971523   -1.2949893445    4.0752328416
C        1.3128351926   -4.1381907771    4.6342130686
O       -0.6282538673   -2.6203986591    3.5301803125
O        0.0267756458   -2.2004819100    5.9785059286
F        3.5824937787   -2.5373641297    2.3663910489
F       -0.0803424886    0.4023748480    2.7212896201
F        2.4047483475   -4.0186433685    5.4077450814
F        0.5088388674   -5.0722659360    5.1416984231
F        1.6887531111   -4.4907031493    3.3984145517
S        0.3739068197   -2.4870124948    4.5857260310
H        1.7738009290   -0.5774125942   -1.2707470538
H        3.4570058050   -2.0873084714   -0.1846091796
H        0.0763854335    0.6160313013    0.1396632858
H        1.4207704934   -0.3947681660    4.6278622773
H        2.6376125198   -1.6922266726    4.4618036169
21   
torsion grid (-15,)
C        1.7613683377   -0.6125316189   -0.1815033864
C        2.6840103499   -1.5197893960    0.3472671517
C        0.8490459368    0.0501269636    0.6452614409
C        1.7813187526   -1.1148068249    2.5903974902
C        2.6681315826   -1.7508405188    1.7166954829
C        0.8792969109   -0.2193550103    2.0062348338
C        1.7661992990   -1.3924889642    4.0551107547
C        1.2967206180   -4.1414485656    4.9053160419
O       -0.4770705900   -2.8043691702    3.3724746236
O       -0.1665837011   -2.0822158524    5.8178048525
F        3.5575786229   -2.6275950153    2.2436279422
F        0.0060908943    0.4094898702    2.8256472277
F        2.2296806036   -3.9196265006    5.8468560853
F        0.4270880464   -5.0494936686    5.3457257611
F        1.8979263948   -4.5912734488    3.7955980932
S        0.3701488292   -2.5267842773    4.5309824688
H        1.7528388223   -0.4202329438   -1.2500879066
H        3.3999711232   -2.0427968464   -0.2778014000
H        0.1233595000    0.7545736353    0.2530459074
H        1.5726706810   -0.5053485624    4.6607569862
H        2.6879309909   -1.8747426972    4.3828348625
21   
torsion grid (0,)
C        1.7329347857   -0.4918922515   -0.2265551897
C        2.5754369536   -1.5053468407    0.2399109110
C        0.9032928613    0.2135633394    0.6500039133
C        1.7640011438   -1.1180035644    2.5204634806
C        2.5656906482   -1.7962489098    1.5973625743
C        0.9354183783   -0.1204535629    1.9970954371
C        1.7575680927   -1.4653453612    3.9699584072
C        1.3607559502   -4.1171206548    5.1103833048
O       -0.2073065280   -3.1702375878    3.1292424156
O       -0.4139138725   -2.1294554128    5.4671300371
F        3.3728859972   -2.7782034225    2.0653948664
F        0.1316045191    0.5427995749    2.8605610742
F        2.0844498150   -3.6820580100    6.1565135600
F        0.5049514552   -5.0527264413    5.5187041282
F        2.1906721946   -4.6318652018    4.1935183876
S        0.3872071095   -2.6664669084    4.3666784812
H        1.7206207205   -0.2513479309   -1.2852728108
H        3.2231511661   -2.0664596107   -0.4252054707
H        0.2382460799    0.9988448513    0.3067749838
H        1.5436197084   -0.6121920916    4.6144717790
H        2.6903258195   -1.9413058088    4.2757001487
21   
torsion grid (15,)
C        1.7121212216   -0.3989513152   -0.2429683408
C        2.4742365327   -1.5014777454    0.1552664875
C        0.9731291829    0.3380545421    0.6867593366
C        1.7592577759   -1.1446143063    2.4728254014
C        2.4743901202   -1.8494415495    1.4988058337
C        1.0095490384   -0.0551628928    2.0184998209
C        1.7637451789   -1.5649618295    3.9035664167
C        1.3704215792   -4.0781634259    5.2950209850
O        0.1322398630   -3.5370231111    2.9646198611
O       -0.6032302385   -2.2546012295    5.0608033499
F        3.2070089148   -2.9116629550    1.9049409111
F        0.2947876475    0.6446441419    2.9300122342
F        1.8612170018   -3.4481991884    6.3772255758
F        0.5329846520   -5.0391877417    5.6799447890
F        2.3887162945   -4.6134779577    4.6077497407
S        0.4364308127   -2.8325940114    4.2093817502
H        1.6930667230   -0.1118233682   -1.2899272594
H        3.0514719501   -2.0877326974   -0.5517164333
H        0.3743418867    1.1948915602    0.3967916095
H        1.5261533504   -0.7501108289    4.5871756809
H        2.7084517525   -2.0314977931    4.1878657606
21   
torsion grid (30,)
C        2.0840738884   -1.1250922264   -0.1183772633
C        2.9769992805   -1.7581547142    0.7513788172
C        1.0019969676   -0.3888840569    0.3722823449
C        1.6909913166   -0.9215681709    2.6629459195
C        2.7576928577   -1.6451671979    2.1175917969
C        0.8285743558   -0.3078886546    1.7482138274
C        1.4695286761   -0.8469367159    4.1370688517
C        1.0551228899   -2.4959718306    6.4652351459
O        0.8545645869   -3.4868016508    3.9655195152
O       -0.9661003810   -1.8784188057    4.7808621784
F        3.6188295103   -2.2394982186    2.9733377495
F       -0.2128517163    0.4028185882    2.2378364917
F        0.8996277111   -1.3382289417    7.1315795956
F        0.3542881502   -3.4550215339    7.0661539013
F        2.3562799773   -2.8207802394    6.4624435942
S        0.4355105095   -2.2843072226    4.6837550261
H        2.2340411203   -1.2054121857   -1.1907711009
H        3.8229404084   -2.3328489776    0.3896486015
H        0.2998798079    0.1110383491   -0.2864282629
H        0.9085376299    0.0384044895    4.4359840671
H        2.4053997732   -0.9119905633    4.6947888747
21   
torsion grid (45,)
C        1.9925217392   -1.0608739012   -0.1296839007
C        2.9186242801   -1.7292888034    0.6763502810
C        0.9412685380   -0.3306590327    0.4317963591
C        1.7259897289   -0.9494427958    2.6699464271
C        2.7632174137   -1.6604743785    2.0546711466
C        0.8313437446   -0.2938786354    1.8161133556
C        1.5662325893   -0.9227996735    4.1551516136
C        0.8398221563   -2.3519930256    6.5391129580
O        1.0879050396   -3.5883840674    4.1508223872
O       -0.8988285764   -2.0101206041    4.4950113855
F        3.6608068692   -2.2847405337    2.8483869732
F       -0.1723392021    0.4178148725    2.3751220934
F        0.5202930529   -1.1507944965    7.0510574419
F        0.0994016340   -3.2954372045    7.1168611241
F        2.1393029536   -2.5896302226    6.7750139320
S        0.5128540391   -2.3482771051    4.6690409176
H        2.0932743107   -1.1070134624   -1.2098052050
H        3.7430629077   -2.2965406123    0.2576610741
H        0.2165486315    0.1986678320   -0.1776473127
H        1.0466526784   -0.0301184419    4.5041273002
H        2.5182721963   -1.0457987376    4.6740678499
21   
torsion grid (60,)
C        1.8965584421   -1.0171344196   -0.1477624692
C        2.8494997092   -1.7277140271    0.5875116492
C        0.8862744853   -0.2942443141    0.4929420412
C        1.7664830190   -1.0093114786    2.6658112482
C        2.7620899788   -1.7092114562    1.9737691574
C        0.8431219233   -0.3079128780    1.8813198287
C        1.6761919971   -1.0346705186    4.1580963224
C        0.6424302455   -2.2499972670    6.5445866395
O        1.3023887276   -3.7094215870    4.3656373897
O       -0.7649596406   -2.2050242535    4.2365702372
F        3.6877815045   -2.3759940634    2.6974446756
F       -0.1161076216    0.4023159500    2.5141556087
F        0.1471220295   -1.0466046593    6.8771521016
F       -0.0934177369   -3.2075160042    7.1050043524
F        1.9073476797   -2.3340147491    6.9883687654
S        0.6127930707   -2.4538377837    4.6571751599
H        1.9442056108   -1.0234190899   -1.2325213626
H        3.6447996174   -2.2891265435    0.1088722097
H        0.1418062524    0.2685357763   -0.0600643458
H        1.1947168957   -0.1407631106    4.5565075506
H        2.6465814248   -1.2049079820    4.6259505250
21   
torsion grid (75,)
C        1.8162898545   -0.9364578525   -0.1371871775
C        2.7937851769   -1.6889402082    0.5200101028
C        0.8546737088   -0.2203788239    0.5815403950
C        1.8382930085   -1.0254800571    2.6774018229
C        2.7808427963   -1.7180484838    1.9088207379
C        0.8862685003   -0.2833739150    1.9685155510
C        1.8242525167   -1.0996247667    4.1706808811
C        0.4895298256   -2.0871575969    6.5157921810
O        1.5112045653   -3.7549445838    4.6468402609
O       -0.5610907840   -2.3763316513    4.0450342601
F        3.7267790823   -2.4324492609    2.5583750354
F       -0.0241743489    0.4190191099    2.6779198619
F       -0.1558098066   -0.9162506702    6.6284342103
F       -0.2234858737   -3.0499512653    7.0962833938
F        1.6846750913   -1.9822693975    7.1224386073
S        0.7475940609   -2.5087358994    4.6829638251
H        1.8057856307   -0.9050794794   -1.2224849670
H        3.5512137923   -2.2468708626   -0.0201883770
H        0.0913197660    0.3726880193    0.0892581767
H        1.3898683911   -0.2036153081    4.6165190321
H        2.8107180986   -1.3151420035    4.5811491034
21   
torsion grid (90,)
C        1.7338259831   -0.8727211220   -0.1237173404
C        2.7345395379   -1.6576321426    0.4560257574
C        0.8144817850   -0.1782444793    0.6682132292
C        1.8958684549   -1.0645247459    2.6814160267
C        2.7890120399   -1.7383594522    1.8417597100
C        0.9143716631   -0.2938690485    2.0479942641
C        1.9549979536   -1.1875654605    4.1685258603
C        0.3221347146   -1.9527169603    6.4203152530
O        1.6785187246   -3.7782082108    4.9600404867
O       -0.3408693207   -2.6154620647    3.8933455012
F        3.7525764608   -2.4931821000    2.4177632203
F        0.0412779405    0.3801188292    2.8298718637
F       -0.3818206151   -0.8194497461    6.2838227630
F       -0.4268103416   -2.8774022500    7.0172037912
F        1.4092316211   -1.6992654840    7.1701925761
S        0.8671573308   -2.5860908645    4.7163175226
H        1.6701629691   -0.8005538701   -1.2052382746
H        3.4577474829   -2.2024263060   -0.1414529589
H        0.0314301436    0.4359551848    0.2365619756
H        1.5767677604   -0.2901676087    4.6606546315
H        2.9522605362   -1.4442794572    4.5249266211
21   
torsion grid (105,)
C        2.2647233895   -1.1240703738   -0.0332767734
C        3.1323523678   -1.6644229961    0.9201168705
C        1.0847616517   -0.4797954916    0.3508612240
C        1.6282172054   -0.9098939142    2.7023073669
C        2.7907698316   -1.5498065902    2.2615218138
C        0.7938817948   -0.3942226147    1.7051704907
C        1.2698048991   -0.8223983826    4.1474222664
C       -1.1576193488   -1.4194961442    5.6236788547
O        0.9522250413   -3.0974108170    5.6118145426
O       -0.4228727296   -2.8480935991    3.4605239628
F        3.6163886414   -2.0742288860    3.1970483911
F       -0.3434291346    0.2248277818    2.0978199279
F       -0.6147497297   -0.7042520166    6.6248874656
F       -1.8433049643   -0.5920101343    4.8234540478
F       -1.9772579806   -2.3405074485    6.1269670836
S        0.2217127844   -2.2795095119    4.6435409465
H        2.5097348528   -1.2075958397   -1.0877425847
H        4.0505879699   -2.1704858851    0.6416491158
H        0.3969935434   -0.0580223696   -0.3742641576
H        0.6832185859    0.0715239506    4.3652145657
H        2.1399559185   -0.8786417149    4.8011608005
21   
torsion grid (120,)
C        1.5474495750   -0.7632951772   -0.0453269516
C        2.4788600637   -1.6998248996    0.4129476918
C        0.8180071097    0.0235471865    0.8508463285
C        1.9638693459   -1.0644810998    2.7246971695
C        2.6588862833   -1.8300095906    1.7830357011
C        1.0396579063   -0.1501380642    2.2105873106
C        2.1696720421   -1.2476999907    4.1888985829
C        0.0323452655   -1.8894577678    6.0640943553
O        2.1179098369   -3.5316298925    5.6558166821
O        0.3852286167   -3.2785222413    3.7771604648
F        3.5476529782   -2.7371399899    2.2497866587
F        0.3376711243    0.6026168015    3.0919272560
F       -0.7979020642   -1.0631389959    5.4142575031
F       -0.6696623282   -2.8316499033    6.6915946102
F        0.7364675094   -1.1800121917    6.9634433699
S        1.2218116618   -2.7155743399    4.8360204621
H        1.3861958151   -0.6471939788   -1.1127680569
H        3.0496908087   -2.3240882741   -0.2661724517
H        0.0890672655    0.7529772453    0.5141571612
H        1.8313820461   -0.3813218596    4.7590443830
H        3.2008416114   -1.4778438043    4.4608158016
21   
torsion grid (135,)
C        1.4431932054   -0.7442222927    0.0356025999
C        2.3441177815   -1.7316725793    0.4455363486
C        0.8128254341    0.0856287229    0.9673293768
C        1.9909288680   -1.0706025090    2.7800494784
C        2.5925632613   -1.8720259310    1.8037509097
C        1.0994894887   -0.0998664799    2.3135351749
C        2.2666165549   -1.2722041376    4.2298079537
C       -0.0786499525   -1.8899722624    5.8553178056
O        2.1870188511   -3.3263303820    5.9761991122
O        0.7400233267   -3.5135497460    3.8614479571
F        3.4630561044   -2.8181508706    2.2223046019
F        0.4985752595    0.7001401127    3.2277385284
F       -0.8686075718   -1.2453394899    4.9866854317
F       -0.7826025424   -2.8209868465    6.4981172144
F        0.4097029827   -1.0054838193    6.7411951130
S        1.3528373855   -2.7295014982    4.9321638195
H        1.2303049068   -0.6195903980   -1.0217931631
H        2.8418746403   -2.3860840579   -0.2620695209
H        0.1130481354    0.8588577534    0.6685434363
H        1.9818452649   -0.4088781416    4.8332202359
H        3.3063491669   -1.5219280763    4.4516894462
21   
torsion grid (150,)
C        1.9299286586   -1.1076849812    0.0316503965
C        2.7550114741   -1.8809390420    0.8536955835
C        0.9887004220   -0.2306187224    0.5786144288
C        1.6808848893   -0.9084859658    2.8309130539
C        2.6107465618   -1.7641945878    2.2295579245
C        0.8873475298   -0.1539994021    1.9612666658
C        1.5376913890   -0.8290187114    4.3123595062
C       -1.2309293125   -1.5498780168    4.9149042301
O        0.8437994902   -2.2925731755    6.4526781113
O        0.5939805730   -3.3833951281    4.1402069020
F        3.4112483503   -2.4910273297    3.0397413464
F       -0.0150936606    0.6974962732    2.5070203749
F       -1.2969854043   -0.3377526006    5.4897779402
F       -1.6099347228   -1.4496637533    3.6346690820
F       -2.0418819691   -2.3910582438    5.5566416989
S        0.5447086987   -2.2187440984    5.0217856972
H        2.0235316706   -1.1869678234   -1.0471844739
H        3.4937604193   -2.5638860818    0.4480023102
H        0.3437485527    0.3821523374   -0.0421689556
H        1.0545415114    0.0906871729    4.6452172573
H        2.4843846800   -0.9372285815    4.8473465065
21   
torsion grid (165,)
C        1.8942887838   -1.0136598789   -0.1709807727
C        2.7478151528   -1.8350113417    0.5710621629
C        0.9933416661   -0.1538061262    0.4641320152
C        1.7815205609   -0.9532718997    2.6447321673
C        2.6730204405   -1.7853475941    1.9569483753
C        0.9601369527   -0.1453925500    1.8518778601
C        1.7176967841   -0.9401551667    4.1359535929
C       -1.0753445757   -1.7621542620    4.4868925956
O        0.8532528235   -2.2614126370    6.3002812462
O        0.9115578909   -3.5354492357    4.0713312256
F        3.5107205895   -2.5531248887    2.6865294491
F        0.0962217437    0.6868187575    2.4825526722
F       -1.2716285425   -0.5187420882    4.9508726669
F       -1.3151196433   -1.7852737041    3.1694784297
F       -1.9053801232   -2.6038988512    5.1040709713
S        0.7087754896   -2.3119560002    4.8448081665
H        1.9344575068   -1.0405129305   -1.2556878093
H        3.4590115704   -2.5030676571    0.0970318638
H        0.3274392233    0.4966289922   -0.0929235865
H        1.3062574653   -0.0172232201    4.5460412034
H        2.6923454375   -1.1361321413    4.5907292298
21   
torsion grid (180,)
C        1.6841426182   -1.1898006924   -0.2490603929
C        2.8736895903   -1.4001489846    0.4543431954
C        0.4895901589   -0.9235177558    0.4257089652
C        1.6782972645   -1.0463464079    2.5676996288
C        2.8400756473   -1.3243219164    1.8399639552
C        0.5127025018   -0.8615684281    1.8132768652
C        1.6645199051   -0.9690752140    4.0604205570
C        3.4345373494    1.3979355542    4.1096724581
O        1.8873284431    0.6442949552    6.1892764098
O        0.7540605612    1.5812887427    4.0855310469
F        3.9849616887   -1.5283519469    2.5348595274
F       -0.6418567302   -0.6386767344    2.4761074382
F        4.4196547207    0.5730072279    4.4904987763
F        3.4343528671    1.5014459214    2.7741713535
F        3.6301450942    2.6033659773    4.6465540899
S        1.7617338346    0.7445040264    4.7349496288
H        1.6874054411   -1.2390231302   -1.3337116986
H        3.8104387615   -1.6155995134   -0.0485392693
H       -0.4461466829   -0.7679512209   -0.1006178649
H        2.4673244487   -1.5314181005    4.5372303501
H        0.6928193495   -1.2834538536    4.4512879765
