21   
torsion grid (-165,)
C        1.5455106695    0.0339179416    0.6939691657
C        0.0624495410   -0.3896046632    0.7418413800
C       -0.0212284473   -1.8876568942    1.1077244874
C       -0.6299567051    0.4590851792    1.8304065162
C       -0.5371419680   -0.1540568718   -0.6434281350
C       -1.8196071797   -0.1087782675   -1.0366539072
C       -3.0758512308   -0.3354428332   -0.2328842518
H        1.6417565815    1.0950165339    0.4378565905
H        2.0989107201   -0.5447378204   -0.0546204953
H        2.0283354760   -0.1244922277    1.6646024148
H       -1.0598663697   -2.2282562717    1.1592614077
H        0.4930692078   -2.5015302897    0.3606470948
H        0.4464552010   -2.0742951808    2.0821452100
H       -1.6667456827    0.1618320838    1.9983417316
H       -0.6258058906    1.5192073057    1.5561537581
H       -0.0982630025    0.3528753983    2.7833590372
H        0.2027813105    0.0176791837   -1.4263559749
H       -1.9916173534    0.1076922232   -2.0915743490
H       -3.5398872752    0.6165489942    0.0563201596
H       -3.8137959762   -0.8776841401   -0.8345183904
H       -2.9037165981   -0.9116080339    0.6772573738
21   
torsion grid (-150,)
C        1.4539785660    0.2008148740    0.7142607470
C        0.0305835300   -0.3956702386    0.7693084144
C        0.1200625085   -1.8803443310    1.1882996484
C       -0.7709608904    0.3920765907    1.8245502689
C       -0.5582423519   -0.3165796997   -0.6341463738
C       -1.8250230277   -0.1825721307   -1.0575210525
C       -3.1042953491   -0.0969865854   -0.2545542406
H        1.4251292915    1.2565379154    0.4225204278
H        2.0802732552   -0.3315156851   -0.0106477752
H        1.9419319321    0.1323994310    1.6930079971
H       -0.8759661253   -2.3323748782    1.2384610151
H        0.7135021946   -2.4574097209    0.4707134630
H        0.5913898748   -1.9774557582    2.1740377888
H       -1.7390036942   -0.0637011767    2.0401382925
H       -0.9448505910    1.4227195577    1.4981604790
H       -0.2101920572    0.4265700244    2.7656554598
H        0.1938446377   -0.3965804354   -1.4210992881
H       -1.9607032093   -0.1459444765   -2.1383735795
H       -3.2536579173    0.9005323840    0.1750088341
H       -3.9661960281   -0.3050491018   -0.8955441047
H       -3.1283000067   -0.8147676883    0.5695294924
21   
torsion grid (-135,)
C        1.2624422112    0.2810863336    0.5325922231
C       -0.0928613127   -0.4511755471    0.6660385227
C        0.1805362340   -1.9424494793    0.9738570926
C       -0.8656732051    0.1654167486    1.8432586653
C       -0.7834674967   -0.3811940781   -0.6877349549
C       -2.0352249211   -0.1011736712   -1.0859059864
C       -3.2720156399    0.3011862355   -0.3244950000
H        1.1136917220    1.3454691098    0.3205027077
H        1.8641720128   -0.1425203598   -0.2791361067
H        1.8411328958    0.1954752887    1.4594944233
H       -0.7579822375   -2.4967466286    1.0775582271
H        0.7619837830   -2.4124856589    0.1730153469
H        0.7472518979   -2.0460430422    1.9070726417
H       -1.7683155049   -0.4036894746    2.0817976558
H       -1.1495277462    1.2029568850    1.6409864621
H       -0.2337160675    0.1604556081    2.7387358883
H       -0.1025024883   -0.6619055033   -1.4945997807
H       -2.2033153631   -0.1751811039   -2.1619202403
H       -3.6601162430    1.2512083829   -0.7132010364
H       -4.0642276525   -0.4428019497   -0.4787560250
H       -3.1220074306    0.4135020071    0.7462863072
21   
torsion grid (-120,)
C        1.0678249260    0.3712384034    0.4113398828
C       -0.2031302261   -0.4896274359    0.5999119620
C        0.2223729675   -1.9464264428    0.8970971476
C       -0.9842836723    0.0480756779    1.8089757137
C       -0.9516177100   -0.4941238565   -0.7236183477
C       -2.1755250907   -0.1011838007   -1.1129947791
C       -3.3292678962    0.5153620097   -0.3641423169
H        0.8054345371    1.4140247942    0.2041322329
H        1.6753601166    0.0049585349   -0.4236641593
H        1.6883947620    0.3461537027    1.3149219187
H       -0.6537747759   -2.5870426775    1.0430587779
H        0.8109949691   -2.3643089112    0.0728424062
H        0.8356755106   -1.9918723609    1.8047454754
H       -1.8859887680   -0.5403189521    2.0033962815
H       -1.2711471288    1.0950884324    1.6738686351
H       -0.3548848256   -0.0072371792    2.7046006259
H       -0.3331620802   -0.9101599658   -1.5226400887
H       -2.3898835505   -0.2509684299   -2.1728271175
H       -3.5874635088    1.4853675875   -0.8080824499
H       -4.2206198230   -0.1171576160   -0.4639099962
H       -3.1453538032    0.6703417758    0.6958404439
21   
torsion grid (-105,)
C        1.0115777982    0.3201840616    0.4972045262
C       -0.1700095791   -0.6594033836    0.6871704794
C        0.3893670992   -2.0715365170    0.9734878461
C       -0.9937379553   -0.2109077100    1.9067683985
C       -0.9307578570   -0.7282668352   -0.6291819104
C       -2.0997527313   -0.2259766131   -1.0592124818
C       -3.1613985166    0.5922253539   -0.3704776335
H        0.6473805241    1.3327018186    0.2953461354
H        1.6469271097    0.0176761013   -0.3426366378
H        1.6361344181    0.3509629770    1.3982798611
H       -0.4227910717   -2.7912250558    1.1233793056
H        1.0072877228   -2.4302420195    0.1427440295
H        1.0110322847   -2.0660094068    1.8761003054
H       -1.9026192564   -0.8098252614    2.0222142969
H       -1.2762058885    0.8433434921    1.8444314088
H       -0.3953991214   -0.3309556349    2.8171731433
H       -0.3638513090   -1.2721910009   -1.3882749571
H       -2.3387414179   -0.4428993897   -2.1019678031
H       -3.2882758726    1.5511899564   -0.8892476154
H       -4.1295395571    0.0787437246   -0.4285129095
H       -2.9556614004    0.8023877648    0.6760739104
21   
torsion grid (-90,)
C        0.7540915136    0.5147080260    0.4810361566
C       -0.2654346504   -0.6387697405    0.6183175179
C        0.5029922421   -1.9476990599    0.9046840060
C       -1.2041885005   -0.3684049581    1.8104401687
C       -0.9939301028   -0.8126709428   -0.7095558603
C       -2.1212265775   -0.2534974711   -1.1767258862
C       -3.0218324400    0.7749757941   -0.5300004357
H        0.2470032989    1.4635887214    0.2771473171
H        1.4529039425    0.3258977078   -0.3410497363
H        1.3371693082    0.6287211109    1.4031503397
H       -0.1864041463   -2.7932223165    1.0075197969
H        1.2036437842   -2.1814966706    0.0951285880
H        1.0787375077   -1.8650541741    1.8333016909
H       -2.0025312448   -1.1163396400    1.8589357804
H       -1.6672361023    0.6187772284    1.7630841326
H       -0.6376155341   -0.4181894969    2.7473960894
H       -0.4961880176   -1.5067765975   -1.3888480526
H       -2.4296650140   -0.5692554426   -2.1733483529
H       -3.6332809301    1.2714302437   -1.2896104084
H       -3.7102488938    0.3199841260    0.1922077006
H       -2.4598063840    1.5503281661   -0.0033813095
21   
torsion grid (-75,)
C        0.6429584341    0.5882554340    0.3304895643
C       -0.2585244152   -0.6523584405    0.5191912449
C        0.6484219510   -1.8848899154    0.7223680568
C       -1.1313463297   -0.4932134535    1.7817422987
C       -1.0929491224   -0.8888625114   -0.7386620432
C       -2.1706053352   -0.2335305519   -1.1974992291
C       -2.8627170898    0.9821573587   -0.6341901801
H        0.0504700581    1.4968619199    0.1860167348
H        1.2886935031    0.4701589602   -0.5459881202
H        1.2836141172    0.7371135496    1.2082427768
H        0.0517801274   -2.7943659708    0.8565752219
H        1.3060165913   -2.0379288394   -0.1409431611
H        1.2807283856   -1.7625497394    1.6086856276
H       -1.8019122810   -1.3509181970    1.8991313814
H       -1.7454857726    0.4089693580    1.7560245057
H       -0.4955259293   -0.4347103879    2.6730577715
H       -0.7606334763   -1.7334274837   -1.3436579971
H       -2.6112253859   -0.6166332037   -2.1186748333
H       -3.1561703037    1.6572179392   -1.4461000823
H       -3.7836504634    0.7038446768   -0.1052492260
H       -2.2391448695    1.5488566083    0.0582603246
21   
torsion grid (-60,)
C        0.5211546012    0.6055932160    0.3267870216
C       -0.2795847582   -0.6976624559    0.5414073726
C        0.7228411206   -1.8634647488    0.6661344303
C       -1.0888473487   -0.6132887792    1.8546145434
C       -1.1960740546   -0.9863314849   -0.6475901058
C       -2.1992419420   -0.2576885741   -1.1616569325
C       -2.7436916472    1.0760959417   -0.7219471741
H       -0.1275818070    1.4825180094    0.2631438540
H        1.1022036241    0.5547027719   -0.6000083643
H        1.2191759152    0.7647668062    1.1574954420
H        0.2030482677   -2.8143462151    0.8300703841
H        1.3270618871   -1.9622568330   -0.2429195044
H        1.4054170284   -1.7037958854    1.5080795405
H       -1.6531096837   -1.5367382022    2.0218927096
H       -1.8032954780    0.2137850892    1.8436320579
H       -0.4169081406   -0.4656085985    2.7086849187
H       -0.9947979456   -1.9324634736   -1.1515081163
H       -2.7086318139   -0.6819281328   -2.0281410612
H       -2.6393817697    1.8157902572   -1.5260119358
H       -3.8166935011    0.9965260026   -0.5066250171
H       -2.2545042085    1.4765855063    0.1654790621
21   
torsion grid (-45,)
C        0.3446378755    0.3237307427    0.4036996877
C       -0.4192858113   -1.0023631431    0.6029677552
C        0.6095617530   -2.1510161074    0.6329628118
C       -1.1686653881   -0.9717913084    1.9548062197
C       -1.4089953454   -1.2833840960   -0.5259225164
C       -2.2948970685   -0.4733528101   -1.1263806604
C       -2.6286058920    0.9681632467   -0.8303486524
H       -0.3059578344    1.1967968255    0.4772991850
H        0.8306458059    0.3492347110   -0.5774123814
H        1.1221097680    0.4267056084    1.1698408494
H        0.1180994796   -3.1176637464    0.7916661583
H        1.1644643152   -2.2062660548   -0.3105055087
H        1.3334645198   -2.0053423003    1.4423283227
H       -1.6963138086   -1.9152049267    2.1309706846
H       -1.9096956948   -0.1669433630    1.9809241948
H       -0.4665066155   -0.8147536166    2.7827345679
H       -1.3724394496   -2.3055623789   -0.9052441406
H       -2.8748471403   -0.9141335783   -1.9378518586
H       -2.0935137429    1.6483526902   -1.5057366128
H       -3.6987267684    1.1451080376   -0.9840660945
H       -2.3893857712    1.2604669881    0.1932546725
21   
torsion grid (-30,)
C       -0.1286926825   -0.7975902422    0.1347287266
C       -1.1595593986    0.2265472100    0.6478964126
C       -1.3684389322   -0.0156389087    2.1583190739
C       -0.6103378842    1.6568129432    0.4403975702
C       -2.5197318666    0.1262758935   -0.0317412267
C       -2.8667222218   -0.2635626156   -1.2685268179
C       -1.9910911942   -0.7137041798   -2.4174696606
H        0.1901065741   -0.5914012764   -0.8885077522
H       -0.5331683517   -1.8146827930    0.1673794349
H        0.7661967427   -0.7706307909    0.7670203852
H       -2.0795251368    0.7032504544    2.5808068732
H       -1.7580090554   -1.0228124846    2.3439954587
H       -0.4230898297    0.0880963810    2.7026328008
H       -1.3103251624    2.4074887660    0.8232941678
H       -0.4484219207    1.8622663789   -0.6228449975
H        0.3447509061    1.7852489244    0.9644285285
H       -3.3440727214    0.4458022453    0.6083736078
H       -3.9337263524   -0.2387734498   -1.4894075823
H       -2.5544704392   -0.6847186466   -3.3548145876
H       -1.1113345355   -0.0771151831   -2.5447684553
H       -1.6348902441   -1.7418362888   -2.2850578431
21   
torsion grid (-15,)
C        0.0238236671   -0.6084901387    0.1686277218
C       -1.1298038441    0.2555321457    0.7049090824
C       -1.4302969818   -0.1903079028    2.1551730523
C       -0.6863253422    1.7365353653    0.7216020057
C       -2.4344576948    0.1695163256   -0.0733990414
C       -2.7701413669   -0.3002863867   -1.2859974863
C       -1.9652076208   -0.9769556174   -2.3654869514
H        0.3919545473   -0.2471217945   -0.7954664169
H       -0.2744431565   -1.6557696660    0.0586193844
H        0.8653769981   -0.5718871170    0.8698322958
H       -2.2325538360    0.4106553074    2.5976833097
H       -1.7411776780   -1.2402362754    2.1852606914
H       -0.5409413353   -0.0794605877    2.7861192360
H       -1.4708120319    2.3805335789    1.1341860645
H       -0.4621030179    2.0868439770   -0.2912346019
H        0.2123415406    1.8633209882    1.3373385190
H       -3.2564590950    0.6321915873    0.4777333631
H       -3.8208885751   -0.1748067129   -1.5538126339
H       -2.0050445400   -0.3834421840   -3.2879722456
H       -0.9195130798   -1.1331514834   -2.1128017807
H       -2.4045743873   -1.9532345610   -2.6066809481
21   
torsion grid (0,)
C        0.0471878806   -0.4491162818    0.0096901683
C       -1.1464656490    0.3322631335    0.5803421832
C       -1.4856381919   -0.2370082069    1.9777755600
C       -0.7365569925    1.8155687306    0.7341826912
C       -2.4204781942    0.2948050401   -0.2487600766
C       -2.7696904663   -0.2817106321   -1.4105023826
C       -2.0096043314   -1.1478643726   -2.3821395279
H        0.3545433528   -0.0639749685   -0.9671085828
H       -0.1756048205   -1.5157535551   -0.0882077654
H        0.9041719819   -0.3525116394    0.6861433625
H       -2.3142806582    0.3112587733    2.4395500851
H       -1.7760798569   -1.2907230487    1.9099934063
H       -0.6193889479   -0.1619303462    2.6456720369
H       -1.5486684911    2.4090476396    1.1686282644
H       -0.4828316300    2.2531497205   -0.2371123098
H        0.1362767054    1.9085778563    1.3911641449
H       -3.2156232975    0.8734794218    0.2275635512
H       -3.7988303092   -0.0961225921   -1.7236466744
H       -2.0001424958   -0.6777113037   -3.3738291836
H       -0.9801317936   -1.3471849485   -2.0960179068
H       -2.5201164817   -2.1120185876   -2.5021502352
21   
torsion grid (15,)
C        0.1310891852   -0.3218245228   -0.0042858060
C       -1.0767442874    0.3965125795    0.6203063817
C       -1.4454986525   -0.2989413470    1.9509827308
C       -0.6653136277    1.8571652199    0.9195447085
C       -2.3303746750    0.4478546296   -0.2405393943
C       -2.7343770544   -0.2040021449   -1.3431085644
C       -2.0664974718   -1.2470442000   -2.2016528683
H        0.3749615202    0.0835730557   -0.9912200884
H       -0.0375530364   -1.3978585002   -0.1006953136
H        1.0088017746   -0.1889191280    0.6385176252
H       -2.2805186023    0.2093532292    2.4457104703
H       -1.7404308606   -1.3390244727    1.7775738052
H       -0.5916321412   -0.2926451579    2.6392265954
H       -1.4844472490    2.4125191838    1.3898545285
H       -0.3884820458    2.3821144932   -0.0011588008
H        0.1934645406    1.8855278144    1.6000076315
H       -3.0644137822    1.1458019943    0.1687996929
H       -3.7330378086    0.0612977002   -1.6950065357
H       -2.0126059153   -0.9004905689   -3.2415240224
H       -1.0611204712   -1.5116039266   -1.8839282751
H       -2.6699643448   -2.1638573558   -2.2120516288
21   
torsion grid (30,)
C        0.2355983927   -0.3677208657    0.0804029623
C       -0.8875926293    0.3677758768    0.8369840899
C       -1.3356712095   -0.4843643401    2.0467887964
C       -0.3235879224    1.7098771752    1.3510472177
C       -2.1101983653    0.6744844154   -0.0192521675
C       -2.6386533292    0.0326970741   -1.0732254440
C       -2.1904460824   -1.2464957028   -1.7455999387
H        0.4987920398    0.1578698401   -0.8435152049
H       -0.0371627746   -1.3925258639   -0.1775530865
H        1.1333832796   -0.4169817122    0.7072182448
H       -2.1149869956    0.0269921549    2.6223590673
H       -1.7405082255   -1.4469645103    1.7175282044
H       -0.4904560290   -0.6787728107    2.7184378454
H       -1.0781750342    2.2659337137    1.9188001271
H        0.0044558544    2.3422758760    0.5185137291
H        0.5362189306    1.5430812280    2.0095546470
H       -2.6476132627    1.5677742953    0.3041694131
H       -3.5320820488    0.4859026613   -1.5025313269
H       -2.9915623473   -1.6410113828   -2.3776205683
H       -1.3175806718   -1.0886947668   -2.3895785294
H       -1.9282022769   -2.0259787407   -1.0252011601
21   
torsion grid (45,)
C        0.3769217829   -0.3148815865    0.1201666095
C       -0.7529285117    0.3378188200    0.9443222382
C       -1.2783595285   -0.6687679412    1.9934540926
C       -0.1675738177    1.5601741539    1.6805546741
C       -1.9101179073    0.8206303846    0.0721426242
C       -2.5438288129    0.2145684548   -0.9440369838
C       -2.3419044731   -1.1698436051   -1.5093640133
H        0.7199417423    0.3590413385   -0.6720454900
H        0.0667345119   -1.2505986994   -0.3479712501
H        1.2321422133   -0.5386115222    0.7686891013
H       -2.0631491962   -0.2174574308    2.6098142638
H       -1.7015691403   -1.5574749116    1.5152473588
H       -0.4681078663   -0.9931843501    2.6578329715
H       -0.9283492066    2.0511876048    2.2980140053
H        0.2177293163    2.2997747421    0.9694750983
H        0.6569813297    1.2619441302    2.3374382513
H       -2.2612055320    1.8245678940    0.3148695369
H       -3.3318042464    0.7907799116   -1.4300310536
H       -3.3031384024   -1.5910963508   -1.8234858093
H       -1.6985176300   -1.1477350433   -2.3985742136
H       -1.8959307447   -1.8624988398   -0.7939848095
21   
torsion grid (60,)
C        0.6260327151   -0.4301757482   -0.0827007478
C       -0.5288147794    0.1839676523    0.7388035085
C       -1.0971077294   -0.8639083071    1.7213921301
C        0.0377151350    1.3596134599    1.5612755414
C       -1.6273404541    0.7301428254   -0.1733128477
C       -2.3870851680    0.1002029136   -1.0829801068
C       -2.4005922076   -1.3507177681   -1.4871959488
H        1.0393731587    0.3061900934   -0.7798892172
H        0.3020013225   -1.2944045594   -0.6675302154
H        1.4334036260   -0.7593573281    0.5824610045
H       -1.9107093880   -0.4358571717    2.3163386161
H       -1.4924873766   -1.7407953926    1.2024002445
H       -0.3150333528   -1.2053905221    2.4102284465
H       -0.7436685178    1.8257483309    2.1723325686
H        0.4587078583    2.1313540618    0.9067533636
H        0.8324008704    1.0189568027    2.2341092208
H       -1.8142415242    1.7989508982   -0.0622996990
H       -3.1103043199    0.7174179735   -1.6180081399
H       -3.4044536072   -1.7732199690   -1.3538245611
H       -2.1562683193   -1.4534769727   -2.5522301494
H       -1.7016596784   -1.9678339992   -0.9233901848
21   
torsion grid (75,)
C        0.7354890293   -0.3768231545   -0.0603684994
C       -0.4960513963    0.1682758096    0.6969747701
C       -1.1052691891   -0.9320467839    1.5910271511
C       -0.0314380775    1.3202863567    1.6134763932
C       -1.5090069672    0.7394816317   -0.2940090168
C       -2.3560180455    0.1109096166   -1.1239502349
C       -2.5314513781   -1.3659737563   -1.3734813836
H        1.1931670850    0.4065587072   -0.6735396520
H        0.4648045302   -1.2027748059   -0.7252099164
H        1.4915520461   -0.7429419703    0.6448787411
H       -2.0026476353   -0.5644830229    2.0996578145
H       -1.3836758501   -1.8243147770    1.0270134180
H       -0.3820552957   -1.2373713296    2.3564504022
H       -0.8746732047    1.7440263707    2.1707358609
H        0.4271770545    2.1276769025    1.0312828480
H        0.7092104355    0.9672003232    2.3394985453
H       -1.5522512595    1.8292390408   -0.3113260743
H       -3.0080328360    0.7494832087   -1.7210929995
H       -3.4204715947   -1.7517603273   -0.8575617617
H       -2.6815535642   -1.5509365104   -2.4431887869
H       -1.6754720681   -1.9603600188   -1.0518003665
21   
torsion grid (90,)
C        0.8341576499   -0.3610508671    0.1107612273
C       -0.4851356865    0.1035536061    0.7682899545
C       -1.1265850785   -1.0672246035    1.5385982641
C       -0.1654382027    1.2230304532    1.7833487385
C       -1.3877815080    0.6992517127   -0.3062246968
C       -2.3142061544    0.1311652082   -1.0940937132
C       -2.7357495888   -1.3181374541   -1.1885169485
H        1.3239921511    0.4658503841   -0.4147071181
H        0.6495272051   -1.1572532383   -0.6179759719
H        1.5308281530   -0.7431653239    0.8670104925
H       -2.1154180916   -0.7914865362    1.9197579792
H       -1.2379783621   -1.9618984019    0.9235081683
H       -0.4977393110   -1.3365349688    2.3949817809
H       -1.0780715305    1.5822289042    2.2720475799
H        0.3124944443    2.0785492593    1.2928141248
H        0.5149271048    0.8593177945    2.5614635200
H       -1.2362278814    1.7697903653   -0.4543611841
H       -2.8302049801    0.8030514737   -1.7799572140
H       -3.4419711770   -1.5915384258   -0.3954082935
H       -3.2361157519   -1.5036670971   -2.1437958812
H       -1.8881127092   -2.0049126232   -1.1235691528
21   
torsion grid (105,)
C        1.0127931848   -0.1304437433    0.2532402754
C       -0.3939464579    0.1154490498    0.8469070255
C       -0.8646774778   -1.1679758395    1.5527929947
C       -0.3043279687    1.2425914255    1.9007606419
C       -1.2908562243    0.6126036075   -0.2776552149
C       -2.2703957492    0.0536089962   -1.0069020972
C       -2.9063462158   -1.3119407653   -0.9652188924
H        1.4028328640    0.7720208122   -0.2304274477
H        0.9834339094   -0.9275857341   -0.4966165361
H        1.7183093284   -0.4226035669    1.0405398440
H       -1.8992322025   -1.0815051929    1.8996572677
H       -0.7864467057   -2.0441599991    0.9037086400
H       -0.2325865698   -1.3576961958    2.4278509265
H       -1.2842528056    1.4369775496    2.3501810183
H        0.0518064079    2.1773846797    1.4535999082
H        0.3903551372    0.9682736598    2.7028646063
H       -1.0351386257    1.6341397897   -0.5683926178
H       -2.6948259179    0.6977952791   -1.7791659204
H       -3.9892802914   -1.2187552948   -0.8138908067
H       -2.7711839880   -1.8159398774   -1.9309039085
H       -2.5143941633   -1.9645884339   -0.1892082181
21   
torsion grid (120,)
C        1.0601843588   -0.1011182506    0.1362152813
C       -0.3892438853    0.0195090938    0.6621564573
C       -0.7840482756   -1.3115833063    1.3205317064
C       -0.4382379404    1.1327394419    1.7345048136
C       -1.2606020695    0.4676220276   -0.5005710428
C       -2.3233212874   -0.0541628223   -1.1348682522
C       -3.0992893832   -1.3305790824   -0.9331976394
H        1.3980721992    0.8379651017   -0.3159378222
H        1.1354225549   -0.8862217348   -0.6234812739
H        1.7480860851   -0.3471415321    0.9538121858
H       -1.7971156300   -1.2755514544    1.7321982325
H       -0.7209521061   -2.1468754364    0.6169094124
H       -0.0990323956   -1.5270011272    2.1485989655
H       -1.4510395444    1.2438159384    2.1360384426
H       -0.1337679836    2.0992794490    1.3178546416
H        0.2366221572    0.8977027690    2.5659822384
H       -0.9243781173    1.4296870639   -0.8947672948
H       -2.7100498263    0.5514854492   -1.9566112073
H       -4.1553863905   -1.1001430200   -0.7431998832
H       -3.0745495778   -1.9320910505   -1.8509309782
H       -2.7394688005   -1.9507709313   -0.1163144609
21   
torsion grid (135,)
C        1.2291730001   -0.0291277594    0.3022045791
C       -0.2633595210   -0.0073275199    0.7055988353
C       -0.6285870887   -1.3793430678    1.2950616666
C       -0.4643924709    1.0737610756    1.7938042764
C       -1.0596523812    0.4198934511   -0.5183097430
C       -2.1871951213   -0.0195236174   -1.1008981429
C       -3.1105850100   -1.1662836133   -0.7790499157
H        1.5458529908    0.9396987772   -0.0996844838
H        1.4169319814   -0.7886400234   -0.4645450649
H        1.8607243718   -0.2557934903    1.1688806819
H       -1.6305481224   -1.3818787567    1.7327973816
H       -0.5743991608   -2.1704894771    0.5406565820
H        0.0753075833   -1.6327346629    2.0960600221
H       -1.5121898485    1.1192018276    2.1082450794
H       -0.1807685341    2.0655362118    1.4246117347
H        0.1508185542    0.8534919768    2.6745916326
H       -0.6208383541    1.3035297396   -0.9875326653
H       -2.5074766887    0.5526067113   -1.9736101231
H       -4.1177748123   -0.7861159847   -0.5646558010
H       -3.2081508993   -1.8260410367   -1.6505117408
H       -2.7944063224   -1.7722219975    0.0662663504
21   
torsion grid (150,)
C        1.4993953162   -0.0418688561    0.6378885580
C       -0.0272446328   -0.0861937292    0.8665435380
C       -0.4100567733   -1.5375528487    1.2180615444
C       -0.3895608706    0.8453950220    2.0449694341
C       -0.6992206033    0.4372569078   -0.3972215804
C       -1.8875681580    0.1517138223   -0.9524090395
C       -2.9764198943   -0.7808772398   -0.4694037135
H        1.8362796350    0.9733785533    0.3993617036
H        1.7903062076   -0.6962656804   -0.1913470077
H        2.0361943606   -0.3712795910    1.5345828547
H       -1.4463689835   -1.6281829274    1.5484576793
H       -0.2671056929   -2.2014227069    0.3590884823
H        0.2251062669   -1.9007013617    2.0341629354
H       -1.4680536685    0.8343877682    2.2337895981
H       -0.0975028205    1.8799243529    1.8338856732
H        0.1228974839    0.5285507903    2.9616242231
H       -0.1015330133    1.1827943869   -0.9247378989
H       -2.1148978532    0.6782317312   -1.8792819680
H       -3.9202684012   -0.5508376212   -0.9726560716
H       -2.7429826763   -1.8304734646   -0.6832564742
H       -3.1502335406   -0.6972769027    0.6065609058
21   
torsion grid (165,)
C        1.5281373450    0.1270683500    0.7231419351
C        0.0018180388   -0.0651014932    0.8437799282
C       -0.2550445074   -1.5455024229    1.2003045132
C       -0.5328900480    0.8490139865    1.9678408662
C       -0.6267564794    0.3252063598   -0.4928269329
C       -1.8559625252    0.0855886270   -0.9755575714
C       -3.0261294411   -0.6012776420   -0.3163944778
H        1.7788976274    1.1667958198    0.4832116809
H        1.9418920695   -0.5099113989   -0.0667003519
H        2.0295906933   -0.1307973626    1.6624992494
H       -1.3085166705   -1.7535059409    1.3963242937
H        0.0700939584   -2.2020566537    0.3864789339
H        0.3076471093   -1.8173288179    2.1011849904
H       -1.6144656651    0.7380549569    2.0915936145
H       -0.3302829529    1.9019126756    1.7446329350
H       -0.0545597264    0.6056224766    2.9244066463
H        0.0429797222    0.8721661693   -1.1578410924
H       -2.0553627916    0.4483566041   -1.9844892175
H       -3.9598098419   -0.0968271511   -0.5890156112
H       -3.1175352959   -1.6420658926   -0.6535321360
H       -2.9602729602   -0.6089086407    0.7724392897
21   
torsion grid (180,)
C        1.5709321724    0.0487296131    0.8301342707
C        0.0578767297   -0.2485598409    0.8756365558
C       -0.1297970879   -1.7416813211    1.2240293245
C       -0.5746725320    0.6369498871    1.9718809333
C       -0.5291511159    0.0736584767   -0.4986425867
C       -1.7921834753   -0.0230498582   -0.9423957183
C       -3.0330003232   -0.4815103794   -0.2220770222
H        1.7585108425    1.1018389916    0.5913983923
H        2.0699500064   -0.5630643162    0.0699268747
H        2.0408051850   -0.1659776731    1.7962663953
H       -1.1846345660   -2.0161634587    1.3032137129
H        0.3218106861   -2.3781717638    0.4558766075
H        0.3499771136   -1.9728900389    2.1827008417
H       -1.6470407038    0.4558108596    2.0790529128
H       -0.4392469344    1.6981851975    1.7382670462
H       -0.1023624358    0.4391002222    2.9416597864
H        0.1986965702    0.4378337571   -1.2247304039
H       -1.9630926023    0.2708200994   -1.9790726535
H       -3.7894325529    0.3135379421   -0.2215726468
H       -3.4801251515   -1.3390428407   -0.7407711831
H       -2.8550006750   -0.7733173923    0.8125059706
