30   
torsion grid (-165,)
C        2.5270966308   -7.0848839447    2.9670103326
C        1.2558393532   -7.1553470799    2.3813206218
C        3.0485080884   -5.8346923100    3.3044209825
C        0.5229247427   -5.9955219042    2.1380615769
C        2.3233410113   -4.6603778873    3.0659998640
C        1.0510339402   -4.7400864115    2.4811907495
C       -0.2782530320   -1.0154467001   -0.0751202304
C        0.9565594712   -1.9276664263   -0.1101118123
C       -1.2262918530   -1.4175416914    1.0630824920
C        1.6811011019   -1.9369360872    1.2438778774
C       -0.5107156919   -1.4424275513    2.4177128999
C        0.7396766414   -2.3314084227    2.3863798357
O       -0.0420733913   -0.1382051478    2.8037932063
O        0.2363173588   -3.6703562478    2.2212756637
H        3.0991375322   -7.9892385579    3.1541721022
H        0.8330543834   -8.1198241245    2.1111465952
H        4.0336973756   -5.7614626203    3.7584013676
H       -0.4639160166   -6.0357588677    1.6856348009
H        2.7574687039   -3.7055186633    3.3381240261
H        0.0414209734    0.0232816065    0.0699920854
H       -0.8090356793   -1.0569695360   -1.0330846195
H        0.6515209290   -2.9501634677   -0.3634304487
H        1.6484098931   -1.5998782148   -0.8941260601
H       -2.0821766707   -0.7322886103    1.1188252966
H       -1.6319075048   -2.4186032175    0.8755378815
H        2.5379403548   -2.6169863687    1.2152629268
H        2.0672506060   -0.9364082208    1.4695411527
H       -1.1834929951   -1.8433402751    3.1876657499
H        1.2372089642   -2.2379842288    3.3575867091
H       -0.8124574703    0.3878666404    3.0660942239
30   
torsion grid (-150,)
C        2.5220514761   -7.0732407839    2.9735115343
C        1.2518529049   -7.1444586495    2.3855817789
C        3.0430297563   -5.8220713203    3.3078672579
C        0.5194234142   -5.9854553789    2.1370888360
C        2.3186002556   -4.6483433555    3.0642739802
C        1.0473047268   -4.7290587153    2.4771862056
C       -0.2815149243   -1.0188466008   -0.0929342505
C        0.9569293487   -1.9263852215   -0.1215079285
C       -1.2307963684   -1.4178994517    1.0453214681
C        1.6786720101   -1.9266152626    1.2340909710
C       -0.5147794071   -1.4297154373    2.3997580867
C        0.7354559596   -2.3198793890    2.3758003289
O       -0.0518171742   -0.1151212654    2.7652851855
O        0.2333580316   -3.6599833841    2.2125130893
H        3.0933520266   -7.9772656441    3.1645040753
H        0.8292633607   -8.1096029971    2.1174984475
H        4.0274349704   -5.7476181744    3.7633677451
H       -0.4664659121   -6.0269253054    1.6826915696
H        2.7527606597   -3.6928434699    3.3339640081
H        0.0330416128    0.0217151570    0.0493846013
H       -0.8100808232   -1.0664231188   -1.0518511087
H        0.6569197298   -2.9513372340   -0.3708277007
H        1.6493422647   -1.5991599465   -0.9052831812
H       -2.0863397164   -0.7331888122    1.0974557758
H       -1.6314630190   -2.4220036383    0.8630011683
H        2.5389281649   -2.6024452046    1.2104962085
H        2.0596619433   -0.9232059322    1.4563494689
H       -1.1864615379   -1.8220072890    3.1740500292
H        1.2306408493   -2.2243949115    3.3480269177
H       -0.7658169643    0.3323906868    3.2416601252
30   
torsion grid (-135,)
C        2.5197746238   -7.0606281754    2.9834633913
C        1.2507383186   -7.1370500401    2.3936422071
C        3.0385342863   -5.8071794827    3.3126775913
C        0.5173591997   -5.9801192372    2.1384754127
C        2.3130206611   -4.6355492841    3.0622124498
C        1.0428882114   -4.7212572567    2.4732704623
C       -0.2856987540   -1.0150707194   -0.1087116148
C        0.9537205460   -1.9214738341   -0.1341001346
C       -1.2378759120   -1.4147626279    1.0270472874
C        1.6718798175   -1.9192912426    1.2234146433
C       -0.5253537836   -1.4223847429    2.3821154285
C        0.7264194127   -2.3124632369    2.3631947439
O       -0.0761495757   -0.0968969949    2.7332378670
O        0.2280086811   -3.6546203053    2.2021487884
H        3.0921376381   -7.9628290145    3.1798201665
H        0.8300653619   -8.1041141780    2.1294779741
H        4.0221327325   -5.7292418156    3.7693419003
H       -0.4676588344   -6.0250680447    1.6825237903
H        2.7454706599   -3.6780381512    3.3275837976
H        0.0267269388    0.0259800497    0.0347930336
H       -0.8118271677   -1.0630169408   -1.0689410373
H        0.6555556598   -2.9470222314   -0.3832069500
H        1.6479495369   -1.5940340700   -0.9161990274
H       -2.0923967925   -0.7298703264    1.0782463005
H       -1.6350435592   -2.4201475978    0.8441890439
H        2.5336521882   -2.5932944422    1.2028218690
H        2.0500898356   -0.9147329339    1.4455446186
H       -1.1989360037   -1.8122712909    3.1550299110
H        1.2200180781   -2.2148048914    3.3362446333
H       -0.6799010308    0.2625007185    3.3976389258
30   
torsion grid (-120,)
C        2.5214376343   -7.0632366183    2.9900484685
C        1.2525677160   -7.1433755364    2.4003898997
C        3.0381054724   -5.8079701984    3.3156776359
C        0.5182841708   -5.9875916885    2.1425892537
C        2.3113560952   -4.6376636270    3.0624889845
C        1.0412704556   -4.7267465308    2.4740186616
C       -0.2797275492   -1.0182270896   -0.1145278823
C        0.9584974637   -1.9260053714   -0.1357253413
C       -1.2378741633   -1.4199552576    1.0155876291
C        1.6697053217   -1.9252141651    1.2251991146
C       -0.5347973748   -1.4288413884    2.3747491037
C        0.7193320033   -2.3181454989    2.3604867910
O       -0.1058589516   -0.0933848255    2.7161399984
O        0.2246797478   -3.6619891083    2.2005121895
H        3.0953228206   -7.9639483308    3.1887668695
H        0.8331500613   -8.1116440321    2.1386052183
H        4.0217623339   -5.7275085655    3.7717742007
H       -0.4666106151   -6.0350175123    1.6866757028
H        2.7429753702   -3.6788380318    3.3245966783
H        0.0323617757    0.0225160540    0.0321110626
H       -0.8018007771   -1.0638956124   -1.0770811288
H        0.6600461788   -2.9510655873   -0.3866423826
H        1.6570972608   -1.5991544114   -0.9141784153
H       -2.0911106771   -0.7342349362    1.0653731666
H       -1.6326045028   -2.4253491902    0.8282296545
H        2.5312919229   -2.5996415459    1.2087763086
H        2.0468268111   -0.9208004383    1.4497464903
H       -1.2155089240   -1.8189290686    3.1406870687
H        1.2111397508   -2.2196537322    3.3349287698
H       -0.5547737714    0.1739715029    3.5294231432
30   
torsion grid (-105,)
C       -5.4269268260   -3.1192734381   -4.9829588352
C       -5.3009643492   -3.8880655738   -3.8178518751
C       -4.4609945745   -2.1508906294   -5.2611335470
C       -4.2288487117   -3.6904243642   -2.9504156619
C       -3.3784701925   -1.9396210937   -4.3978235301
C       -3.2576525868   -2.7162471348   -3.2358003667
C        0.6585606445    0.2841799247   -1.2407406903
C       -0.5505681182    0.7743483202   -2.0480169368
C        1.1219321854   -1.0955987918   -1.7253454449
C       -1.6867700362   -0.2551964630   -2.0027730872
C       -0.0052767710   -2.1319506644   -1.7087886418
C       -1.2146072100   -1.6258802439   -2.4971695100
O        0.4865775374   -3.3380431550   -2.3074271470
O       -2.2426536727   -2.6152933618   -2.3233147697
H       -6.2635181570   -3.2736959255   -5.6585070574
H       -6.0427963337   -4.6475986747   -3.5837407939
H       -4.5431213603   -1.5440920558   -6.1595643318
H       -4.1189901960   -4.2816692589   -2.0456752515
H       -2.6483193159   -1.1773870655   -4.6434823657
H        1.4846666180    1.0004299834   -1.3135683494
H        0.3842573755    0.2295668404   -0.1783424866
H       -0.9055174487    1.7367041727   -1.6629649049
H       -0.2484577697    0.9453700767   -3.0902570414
H        1.4969801271   -1.0235876070   -2.7542903436
H        1.9507406706   -1.4710672938   -1.1163442382
H       -2.0433409731   -0.3712294544   -0.9713858533
H       -2.5445750573    0.0799845184   -2.5938120387
H       -0.3263379376   -2.3156688014   -0.6741189475
H       -0.9153691542   -1.5859851969   -3.5513337763
H        0.2263942490   -4.0873784937   -1.7545902516
30   
torsion grid (-90,)
C       -5.4162215244   -3.1262991194   -4.9858428994
C       -5.2884716662   -3.8985506858   -3.8233195383
C       -4.4518713734   -2.1559952271   -5.2629794141
C       -4.2153638576   -3.7021273104   -2.9566637249
C       -3.3684376497   -1.9467551094   -4.4003677238
C       -3.2455960657   -2.7264800096   -3.2408834878
C        0.6545468052    0.2900460433   -1.2418007607
C       -0.5602729175    0.7746636394   -2.0446444734
C        1.1227800364   -1.0896431105   -1.7224566979
C       -1.6924648303   -0.2599058405   -1.9984625670
C       -0.0026858326   -2.1252487741   -1.6957077824
C       -1.2084313528   -1.6252925267   -2.4940272641
O        0.5033159469   -3.3345241317   -2.2699200827
O       -2.2270728192   -2.6280988545   -2.3306664242
H       -6.2536220031   -3.2794639545   -5.6606367569
H       -6.0295614720   -4.6591070569   -3.5902917335
H       -4.5357930575   -1.5467278721   -6.1595493194
H       -4.1046864539   -4.2950647195   -2.0530984358
H       -2.6387996039   -1.1836146989   -4.6445860048
H        1.4771486074    1.0096221189   -1.3205420274
H        0.3854620569    0.2376136383   -0.1780674592
H       -0.9181678266    1.7346798445   -1.6565588439
H       -0.2626640346    0.9490335957   -3.0875992947
H        1.4947223926   -1.0208402324   -2.7528220947
H        1.9531209617   -1.4605343470   -1.1131991261
H       -2.0476849752   -0.3784605010   -0.9669354362
H       -2.5518905754    0.0715165809   -2.5892533391
H       -0.3253499385   -2.2949617964   -0.6581985647
H       -0.9016195796   -1.5801847338   -3.5457701882
H        0.0489958782   -4.0799763108   -1.8511692263
30   
torsion grid (-75,)
C       -5.4056283372   -3.1362513827   -4.9872576964
C       -5.2754831762   -3.9114471208   -3.8270403662
C       -4.4443762169   -2.1621045193   -5.2617617291
C       -4.2031461254   -3.7146679938   -2.9593522788
C       -3.3613094176   -1.9518920070   -4.3989397783
C       -3.2374470001   -2.7350425589   -3.2422060677
C        0.6536121097    0.2928398961   -1.2398557736
C       -0.5631285216    0.7742891208   -2.0425586676
C        1.1241542429   -1.0880151460   -1.7157089847
C       -1.6957520283   -0.2605831836   -1.9963087851
C       -0.0038145842   -2.1184148786   -1.6820072852
C       -1.2052240585   -1.6235970569   -2.4895928957
O        0.5035284220   -3.3359400815   -2.2307992070
O       -2.2172075523   -2.6363131510   -2.3322870447
H       -6.2426448179   -3.2900268080   -5.6623770122
H       -6.0144498601   -4.6746738738   -3.5962359005
H       -4.5303970501   -1.5506281702   -6.1565776711
H       -4.0911885995   -4.3091443192   -2.0569118340
H       -2.6335686318   -1.1861008401   -4.6405169154
H        1.4747315181    1.0135397665   -1.3225737876
H        0.3864646091    0.2435746942   -0.1756032142
H       -0.9217354027    1.7346264142   -1.6559613013
H       -0.2661078004    0.9474427047   -3.0859049249
H        1.4967854238   -1.0238309454   -2.7460420661
H        1.9531138215   -1.4563291057   -1.1030532688
H       -2.0530324132   -0.3786771239   -0.9655395158
H       -2.5535811492    0.0701087219   -2.5897489160
H       -0.3318015218   -2.2731373874   -0.6428480792
H       -0.8935732481   -1.5777851202   -3.5399419059
H       -0.1113164147   -4.0436623411   -1.9819595816
30   
torsion grid (-60,)
C       -5.3969005642   -3.1453700519   -4.9932108535
C       -5.2654781368   -3.9253094679   -3.8364001836
C       -4.4387752789   -2.1668760634   -5.2630856726
C       -4.1940555244   -3.7280302380   -2.9675573397
C       -3.3568128447   -1.9568399365   -4.3987410100
C       -3.2315668443   -2.7442983688   -3.2454750741
C        0.6520189578    0.2948892348   -1.2392525628
C       -0.5681922260    0.7714264617   -2.0406745992
C        1.1228743942   -1.0886581766   -1.7082250099
C       -1.7010830451   -0.2640117037   -1.9915194654
C       -0.0087796648   -2.1125255379   -1.6630580493
C       -1.2050833063   -1.6252629220   -2.4821429466
O        0.4891523011   -3.3472950356   -2.1758016181
O       -2.2104228325   -2.6469265901   -2.3341844839
H       -6.2329671576   -3.2988479656   -5.6695432936
H       -6.0021547040   -4.6917678751   -3.6091538237
H       -4.5263379923   -1.5518967274   -6.1553081978
H       -4.0809777245   -4.3253717765   -2.0671886464
H       -2.6314568378   -1.1876624285   -4.6364838858
H        1.4715654201    1.0163893484   -1.3296609186
H        0.3890868477    0.2516121361   -0.1738452164
H       -0.9273022759    1.7323923699   -1.6562441623
H       -0.2734075066    0.9423073563   -3.0850553086
H        1.4941798432   -1.0318246153   -2.7393527132
H        1.9514610314   -1.4535991207   -1.0929825316
H       -2.0580354883   -0.3809423391   -0.9606503200
H       -2.5586500972    0.0652547244   -2.5860259380
H       -0.3451705219   -2.2428587968   -0.6221161215
H       -0.8873247452   -1.5772651765   -3.5308941859
H       -0.2395846792   -3.9873810678   -2.1185554006
30   
torsion grid (-45,)
C       -5.4016789888   -3.1363735491   -4.9673973289
C       -5.2668246232   -3.9183133434   -3.8123934559
C       -4.4415198127   -2.1614002588   -5.2427247029
C       -4.1889284444   -3.7254880163   -2.9505048611
C       -3.3529624914   -1.9560930845   -4.3854883914
C       -3.2248231807   -2.7453808600   -3.2341213471
C        0.6786084128    0.2940439339   -1.2626506912
C       -0.5509039364    0.7669457639   -2.0528103391
C        1.1410249822   -1.0947629879   -1.7254005179
C       -1.6861013945   -0.2662518979   -1.9894995568
C        0.0032540372   -2.1092331550   -1.6533595045
C       -1.1934808319   -1.6298459513   -2.4760334340
O        0.4801539126   -3.3681873848   -2.1229660290
O       -2.1954660288   -2.6548216442   -2.3294550526
H       -6.2425703701   -3.2856696908   -5.6386399386
H       -6.0051507203   -4.6819393827   -3.5811356162
H       -4.5325280557   -1.5454292749   -6.1338753956
H       -4.0720850138   -4.3236418667   -2.0512155454
H       -2.6259760578   -1.1896286092   -4.6270189981
H        1.4976405655    1.0138725185   -1.3690429513
H        0.4288294444    0.2597553962   -0.1938270119
H       -0.9053421810    1.7295570431   -1.6681444715
H       -0.2674120634    0.9340119651   -3.1009063925
H        1.5005341526   -1.0497189637   -2.7612014577
H        1.9749888034   -1.4565422127   -1.1153812707
H       -2.0370503349   -0.3771376141   -0.9560832423
H       -2.5458897875    0.0618167390   -2.5813047711
H       -0.3332221268   -2.2062944133   -0.6081437646
H       -0.8773159796   -1.5824830922   -3.5259068032
H       -0.3050376427   -3.9244614516   -2.2636128600
30   
torsion grid (-30,)
C       -5.4008731081   -3.1309793578   -4.9628285294
C       -5.2672960347   -3.9154875916   -3.8093747183
C       -4.4370962008   -2.1590214443   -5.2356766288
C       -4.1888619197   -3.7293852374   -2.9466705053
C       -3.3476047601   -1.9598109010   -4.3779794972
C       -3.2217314362   -2.7519588312   -3.2283857873
C        0.6888909696    0.2906353533   -1.2765810178
C       -0.5475435885    0.7561899279   -2.0604954942
C        1.1466134018   -1.1031568062   -1.7297823362
C       -1.6820217380   -0.2774097512   -1.9839421486
C        0.0062743317   -2.1131961360   -1.6350499523
C       -1.1901266827   -1.6436172659   -2.4641572482
O        0.4695569297   -3.3948664728   -2.0566380616
O       -2.1905149375   -2.6692743047   -2.3238053909
H       -6.2426608265   -3.2757690813   -5.6339588401
H       -6.0082011965   -4.6770103517   -3.5796466314
H       -4.5260162983   -1.5403832555   -6.1251635422
H       -4.0735056152   -4.3302293204   -2.0490422599
H       -2.6184587354   -1.1949546485   -4.6180519967
H        1.5063863864    1.0099990889   -1.3969099494
H        0.4485343431    0.2660746553   -0.2053786765
H       -0.9005648440    1.7208021473   -1.6796033707
H       -0.2720473798    0.9170695260   -3.1117021209
H        1.4986070082   -1.0697777923   -2.7686691460
H        1.9842818474   -1.4599629900   -1.1219076855
H       -2.0282381780   -0.3822014850   -0.9484741830
H       -2.5441356660    0.0465728885   -2.5744473215
H       -0.3310324849   -2.1800644940   -0.5877011116
H       -0.8721640628   -1.5951190405   -3.5143518400
H       -0.3025610363   -3.8733117907   -2.4026731314
30   
torsion grid (-15,)
C       -5.3950386867   -3.1295708669   -4.9696180949
C       -5.2723284878   -3.9114521900   -3.8130296247
C       -4.4270688972   -2.1611135285   -5.2395470661
C       -4.1990987841   -3.7255494740   -2.9440845872
C       -3.3428430843   -1.9623203948   -4.3749098089
C       -3.2271611646   -2.7515019111   -3.2219312747
C        0.6796444685    0.2974499833   -1.2753333787
C       -0.5575184388    0.7549657672   -2.0623413639
C        1.1369583598   -1.0997138832   -1.7181907164
C       -1.6896936711   -0.2801314985   -1.9776934434
C       -0.0029184542   -2.1118223766   -1.6121275693
C       -1.1981820704   -1.6512193861   -2.4468988715
O        0.4574695492   -3.4081027847   -1.9977063273
O       -2.2020108499   -2.6716918730   -2.3106318418
H       -6.2327131508   -3.2738774814   -5.6459527876
H       -6.0169678239   -4.6702239218   -3.5862139090
H       -4.5085121918   -1.5447954530   -6.1313797145
H       -4.0902261183   -4.3242949549   -2.0443102234
H       -2.6108845350   -1.1993171125   -4.6124261444
H        1.4964774978    1.0166129926   -1.4013057555
H        0.4397663353    0.2802995109   -0.2038553733
H       -0.9126557355    1.7221708054   -1.6901086773
H       -0.2823447219    0.9074085957   -3.1149774711
H        1.4886160641   -1.0752366467   -2.7575837885
H        1.9752172103   -1.4517303436   -1.1083401677
H       -2.0368772077   -0.3779734695   -0.9419679208
H       -2.5518374017    0.0372113247   -2.5716007440
H       -0.3399019865   -2.1653357940   -0.5649932718
H       -0.8764969340   -1.6047440924   -3.4970703113
H       -0.2331614488   -3.8160928386   -2.5441971590
30   
torsion grid (0,)
C       -5.3972481055   -3.1255000033   -4.9653888352
C       -5.2836954154   -3.9012439684   -3.8035547573
C       -4.4223813642   -2.1642815797   -5.2358184958
C       -4.2136552666   -3.7171576544   -2.9305353365
C       -3.3411380489   -1.9670328773   -4.3668786062
C       -3.2342475850   -2.7502535920   -3.2085897708
C        0.6814739622    0.2935463061   -1.2795972167
C       -0.5540259434    0.7473666570   -2.0705338800
C        1.1347767485   -1.1071828266   -1.7144432257
C       -1.6856924111   -0.2867207925   -1.9781404941
C       -0.0044075385   -2.1227089037   -1.6004510062
C       -1.2005384464   -1.6652279216   -2.4356562173
O        0.4533743951   -3.4280794549   -1.9633537804
O       -2.2136846291   -2.6726936868   -2.2936269129
H       -6.2327161765   -3.2688063381   -5.6446783581
H       -6.0335703994   -4.6546472041   -3.5760360000
H       -4.4961884921   -1.5519905398   -6.1311169885
H       -4.1113902939   -4.3123233579   -2.0276766952
H       -2.6049879020   -1.2081867820   -4.6051381365
H        1.5000497030    1.0101761012   -1.4090867390
H        0.4406503673    0.2830267566   -0.2081869148
H       -0.9093487494    1.7173106957   -1.7056317730
H       -0.2780096190    0.8922004472   -3.1240778470
H        1.4851294838   -1.0879776041   -2.7547402120
H        1.9741513987   -1.4573588724   -1.1051980153
H       -2.0328814159   -0.3764473944   -0.9417031149
H       -2.5481719592    0.0257169771   -2.5741591585
H       -0.3368340244   -2.1746803891   -0.5534515530
H       -0.8793000379   -1.6249426341   -3.4872049840
H       -0.1040917362   -3.7616849903   -2.6828181481
30   
torsion grid (15,)
C       -5.3992826315   -3.1310531508   -4.9621928161
C       -5.2953313782   -3.8955763533   -3.7918488232
C       -4.4206745595   -2.1744907575   -5.2350748231
C       -4.2311945906   -3.7053756802   -2.9132717483
C       -3.3453060459   -1.9705856827   -4.3602353200
C       -3.2475220633   -2.7427664760   -3.1932372069
C        0.6871256607    0.2866857056   -1.2778660815
C       -0.5422217120    0.7449275441   -2.0746219818
C        1.1312321076   -1.1177590722   -1.7087266452
C       -1.6785015003   -0.2826129556   -1.9776980184
C       -0.0103754760   -2.1341315698   -1.5943904890
C       -1.2077278113   -1.6705478046   -2.4256792483
O        0.4399549016   -3.4435451612   -1.9529120912
O       -2.2355212492   -2.6585051442   -2.2715135188
H       -6.2302129024   -3.2794807870   -5.6459440252
H       -6.0480572535   -4.6456187682   -3.5625156981
H       -4.4871076599   -1.5705135184   -6.1366220027
H       -4.1352616980   -4.2929944975   -2.0048227020
H       -2.6073648369   -1.2140786686   -4.6006437048
H        1.5112109623    0.9973877062   -1.4054644117
H        0.4419157871    0.2797548247   -0.2073508941
H       -0.8930084065    1.7187044357   -1.7154691888
H       -0.2625186685    0.8827442544   -3.1281636745
H        1.4821170607   -1.0993643217   -2.7494173347
H        1.9697481126   -1.4715297707   -1.1005370162
H       -2.0260442408   -0.3642382825   -0.9406459788
H       -2.5399946960    0.0305263603   -2.5747074329
H       -0.3356274862   -2.1977706383   -0.5476446151
H       -0.8906371876   -1.6396805017   -3.4796321722
H        0.0517911920   -3.6865137609   -2.8070314034
30   
torsion grid (30,)
C       -5.3968405890   -3.1461282702   -4.9522899277
C       -5.2940425622   -3.9023420722   -3.7762223111
C       -4.4288983586   -2.1776448108   -5.2205221888
C       -4.2421130173   -3.6941276761   -2.8874128153
C       -3.3662048354   -1.9542779323   -4.3348406865
C       -3.2689430835   -2.7189860372   -3.1625227256
C        0.7122103015    0.2801944891   -1.2793506137
C       -0.5083803686    0.7551130715   -2.0788627263
C        1.1328693348   -1.1321152059   -1.7071706126
C       -1.6608840652   -0.2521876923   -1.9707417470
C       -0.0211715772   -2.1368609793   -1.5922760958
C       -1.2220436445   -1.6544045785   -2.4096307943
O        0.4043106106   -3.4513859268   -1.9593888356
O       -2.2724349115   -2.6115371021   -2.2287078076
H       -6.2184471977   -3.3101760404   -5.6437157503
H       -6.0384524818   -4.6618969817   -3.5510173158
H       -4.4943752170   -1.5789815656   -6.1257277493
H       -4.1463735702   -4.2768510020   -1.9758169277
H       -2.6381186965   -1.1867867648   -4.5707080341
H        1.5484579310    0.9766537184   -1.4067111272
H        0.4649901147    0.2791242800   -0.2092246145
H       -0.8414209604    1.7378865835   -1.7273235837
H       -0.2270104031    0.8792801847   -3.1337274727
H        1.4830354924   -1.1171488475   -2.7487832407
H        1.9678392909   -1.4975924050   -1.1010653000
H       -2.0050099747   -0.3200580480   -0.9315005334
H       -2.5204713392    0.0710231194   -2.5653225038
H       -0.3355265613   -2.2150216245   -0.5448166397
H       -0.9206136866   -1.6406704251   -3.4687447762
H        0.2047409317   -3.5936446652   -2.8976282323
30   
torsion grid (45,)
C       -5.4126953912   -3.1419187314   -4.9556227344
C       -5.3155262413   -3.8918587756   -3.7750677265
C       -4.4347773141   -2.1846332064   -5.2280434092
C       -4.2605163258   -3.6867101864   -2.8892043103
C       -3.3688081034   -1.9649382324   -4.3453217623
C       -3.2769913832   -2.7228674282   -3.1681430923
C        0.6959626530    0.2734142003   -1.2718136355
C       -0.5172389379    0.7448790988   -2.0837887267
C        1.1219068958   -1.1392659569   -1.6933186570
C       -1.6688575616   -0.2633793406   -1.9835823801
C       -0.0296435979   -2.1494182111   -1.5921526854
C       -1.2273960456   -1.6669805958   -2.4170988085
O        0.3963627351   -3.4625659262   -1.9578086814
O       -2.2796776748   -2.6196577031   -2.2361304019
H       -6.2360665353   -3.3019882587   -5.6459378123
H       -6.0663080464   -4.6435177414   -3.5443913800
H       -4.4950137239   -1.5906826302   -6.1367219691
H       -4.1692410943   -4.2654721574   -1.9747089089
H       -2.6338101829   -1.2057760610   -4.5869356973
H        1.5329334892    0.9702194907   -1.3927434091
H        0.4391229356    0.2734306563   -0.2040396102
H       -0.8544238959    1.7280884436   -1.7374554388
H       -0.2260369403    0.8671657548   -3.1362467644
H        1.4825280118   -1.1197046784   -2.7320794204
H        1.9521901943   -1.5031051942   -1.0798410126
H       -2.0203291946   -0.3302960554   -0.9466299685
H       -2.5246190627    0.0589966092   -2.5841885485
H       -0.3490249026   -2.2399193576   -0.5482205013
H       -0.9207483579   -1.6559177836   -3.4746742683
H        0.4235724795   -3.5178715715   -2.9263933239
30   
torsion grid (60,)
C        2.5586780741   -7.0155489087    2.9437136200
C        1.2990807900   -7.1080897579    2.3363279038
C        3.0406467865   -5.7596050670    3.3161529573
C        0.5385864174   -5.9636734461    2.1051693780
C        2.2873946832   -4.6004559064    3.0904032052
C        1.0276029561   -4.7026418430    2.4829240786
C       -0.3779998123   -0.9918842374   -0.0439617197
C        0.8797138187   -1.8723117943   -0.0794214626
C       -1.3240908043   -1.4199246526    1.0885748617
C        1.5959938269   -1.8849867095    1.2788875263
C       -0.6218295727   -1.4358797428    2.4513513996
C        0.6525485060   -2.3001586917    2.4163101175
O       -0.3132290893   -0.1152854139    2.9180290641
O        0.1878529681   -3.6490687365    2.2305330592
H        3.1518835035   -7.9079982589    3.1216746477
H        0.9069101363   -8.0777478441    2.0400109755
H        4.0155720050   -5.6698853911    3.7888535838
H       -0.4400798978   -6.0207814539    1.6371266064
H        2.6896616129   -3.6406615085    3.3930901785
H       -0.0885430563    0.0614762294    0.0834726653
H       -0.9027770107   -1.0420669905   -1.0041990869
H        0.5966264199   -2.8985674960   -0.3401472120
H        1.5694837004   -1.5256547491   -0.8569852443
H       -2.1894592354   -0.7518482742    1.1498972599
H       -1.6993642261   -2.4291511503    0.8851896141
H        2.4594678701   -2.5559013112    1.2499096775
H        1.9988627719   -0.8872973779    1.5050057947
H       -1.2914359563   -1.8498049350    3.2092129336
H        1.1444600522   -2.2057261964    3.3906320240
H        0.3320974354    0.2830405606    2.3138794133
30   
torsion grid (75,)
C        2.5567405367   -7.0330231395    2.9414818720
C        1.2955026838   -7.1209807848    2.3368613125
C        3.0432412337   -5.7783686658    3.3125021457
C        0.5384530661   -5.9739321790    2.1072875739
C        2.2938094414   -4.6164577721    3.0883097235
C        1.0323176422   -4.7142281593    2.4834793161
C       -0.3661669058   -0.9935293883   -0.0354877082
C        0.8898905735   -1.8761425408   -0.0720701435
C       -1.3115650016   -1.4185616467    1.0998220929
C        1.6072818186   -1.8903342087    1.2857110287
C       -0.6069642532   -1.4420789398    2.4604733435
C        0.6649894711   -2.3099539105    2.4213219766
O       -0.2846437527   -0.1280820360    2.9357090402
O        0.1962707351   -3.6577596697    2.2323743632
H        3.1473404954   -7.9274374349    3.1183560027
H        0.8992384964   -8.0892890574    2.0415299514
H        4.0194756356   -5.6918323763    3.7830950243
H       -0.4414733895   -6.0279901167    1.6414800649
H        2.7000433428   -3.6579981541    3.3897768778
H       -0.0718832440    0.0601831450    0.0849277968
H       -0.8944902889   -1.0426103743   -0.9938389230
H        0.6037506267   -2.9013604102   -0.3336206030
H        1.5785648771   -1.5299549689   -0.8507741151
H       -2.1769264890   -0.7501253139    1.1625107409
H       -1.6884304611   -2.4265209754    0.8948786527
H        2.4723393911   -2.5589840812    1.2522233519
H        2.0018561129   -0.8918268207    1.5184842511
H       -1.2764310256   -1.8586364909    3.2174304539
H        1.1567349361   -2.2184109126    3.3955901618
H        0.1669057482    0.3527183925    2.2249857959
30   
torsion grid (90,)
C        2.5542357863   -7.0287335832    2.9428102897
C        1.2903172812   -7.1169241399    2.3438275081
C        3.0450682557   -5.7740606200    3.3081762573
C        0.5342039774   -5.9692787286    2.1141166721
C        2.2961592608   -4.6119497836    3.0835761431
C        1.0317763470   -4.7092991996    2.4846027490
C       -0.3630837322   -0.9826610019   -0.0347103751
C        0.8902411572   -1.8688579982   -0.0724163414
C       -1.3077152132   -1.4042828320    1.1031607432
C        1.6092240556   -1.8839000897    1.2844927887
C       -0.6014445651   -1.4350293893    2.4617380494
C        0.6687532355   -2.3043837482    2.4201215005
O       -0.2608484366   -0.1257565785    2.9401694879
O        0.1969805563   -3.6520287097    2.2343432892
H        3.1440676009   -7.9236338221    3.1197663428
H        0.8913254271   -8.0855384528    2.0531363630
H        4.0235672465   -5.6877783758    3.7741380308
H       -0.4478182778   -6.0231127085    1.6526892838
H        2.7051064671   -3.6530423648    3.3798072424
H       -0.0625644108    0.0701591767    0.0814090134
H       -0.8948270413   -1.0306974961   -0.9912408319
H        0.6005737989   -2.8931190698   -0.3342416117
H        1.5780132001   -1.5240774458   -0.8525165803
H       -2.1729297996   -0.7348637521    1.1670492564
H       -1.6884971681   -2.4104145183    0.8979613842
H        2.4741263138   -2.5526838636    1.2480543190
H        1.9977495694   -0.8848252077    1.5209735758
H       -1.2715625953   -1.8567684193    3.2162037539
H        1.1615741774   -2.2117408073    3.3936060109
H       -0.0287691796    0.4282887012    2.1795544329
30   
torsion grid (105,)
C        2.5509572555   -7.0680113492    2.9405883785
C        1.2845070208   -7.1479350522    2.3457942996
C        3.0521056787   -5.8164366633    3.3026186479
C        0.5362849157   -5.9948940539    2.1172276097
C        2.3108117385   -4.6493216944    3.0786851425
C        1.0437123823   -4.7377391126    2.4840808721
C       -0.3283698825   -0.9929385524   -0.0267128271
C        0.9185712883   -1.8876908542   -0.0676455810
C       -1.2735665230   -1.4130954348    1.1114014532
C        1.6379147363   -1.9091166394    1.2887553034
C       -0.5675986170   -1.4545487220    2.4692449443
C        0.6970075070   -2.3305625993    2.4226212447
O       -0.1970565330   -0.1513276569    2.9462667846
O        0.2162341628   -3.6747938745    2.2346571997
H        3.1348794487   -7.9669198080    3.1168377410
H        0.8774728660   -8.1139821796    2.0576565583
H        4.0327735530   -5.7365487087    3.7651736158
H       -0.4476026058   -6.0422941034    1.6590957656
H        2.7278946005   -3.6929996712    3.3717684431
H       -0.0184780601    0.0564156298    0.0927750407
H       -0.8624757029   -1.0356555933   -0.9821976588
H        0.6217442963   -2.9092871866   -0.3322585957
H        1.6075934448   -1.5451221331   -0.8476082808
H       -2.1386549170   -0.7423865016    1.1768588635
H       -1.6595994478   -2.4166044669    0.9039141497
H        2.5017577451   -2.5791995569    1.2498025133
H        2.0223516385   -0.9105880710    1.5307850750
H       -1.2419371462   -1.8783362719    3.2202049678
H        1.1916827884   -2.2439440917    3.3958127658
H       -0.1922864115    0.4625435302    2.1971819058
30   
torsion grid (120,)
C        2.5481132333   -7.0834959244    2.9431057884
C        1.2790999532   -7.1593775162    2.3532488290
C        3.0556853917   -5.8329949387    3.2999147203
C        0.5345574219   -6.0039970299    2.1244525084
C        2.3186787325   -4.6632053324    3.0758738737
C        1.0489866719   -4.7482452001    2.4864036522
C       -0.3084176624   -0.9896706684   -0.0204446829
C        0.9320234831   -1.8928083015   -0.0662654291
C       -1.2537100689   -1.4106056952    1.1167381719
C        1.6527028227   -1.9205970619    1.2890282999
C       -0.5488146045   -1.4615480192    2.4745571414
C        0.7123994173   -2.3403620514    2.4232442979
O       -0.1478406407   -0.1637989229    2.9450862513
O        0.2253148480   -3.6824869930    2.2374199600
H        3.1289705369   -7.9843941334    3.1193973412
H        0.8670318028   -8.1244518831    2.0690326297
H        4.0384983173   -5.7560091167    3.7583803068
H       -0.4512006552   -6.0484057420    1.6700371096
H        2.7410072071   -3.7077695551    3.3643140880
H        0.0094277727    0.0552436307    0.1081725141
H       -0.8440079598   -1.0257272680   -0.9754647316
H        0.6286985854   -2.9118668315   -0.3338301085
H        1.6220051861   -1.5518738960   -0.8461018073
H       -2.1184622977   -0.7380751715    1.1840976426
H       -1.6464192492   -2.4111538215    0.9070999028
H        2.5135825494   -2.5944735465    1.2481952541
H        2.0372941683   -0.9234749344    1.5338529329
H       -1.2270486899   -1.8883995686    3.2220824932
H        1.2102458977   -2.2563487616    3.3952968917
H       -0.3644873395    0.4927210229    2.2674190659
30   
torsion grid (135,)
C        2.5444672139   -7.0781650944    2.9490329933
C        1.2731689339   -7.1536430249    2.3641869037
C        3.0563988287   -5.8269865566    3.2971851540
C        0.5311347260   -5.9972629644    2.1321893917
C        2.3219800774   -4.6561950350    3.0699234236
C        1.0498055472   -4.7408263403    2.4857340063
C       -0.3011299408   -0.9812856611   -0.0314218144
C        0.9339975566   -1.8913250192   -0.0788830239
C       -1.2456163249   -1.3988095522    1.1065450070
C        1.6567566839   -1.9188727705    1.2750018553
C       -0.5415017230   -1.4533495778    2.4651832494
C        0.7180552176   -2.3325785673    2.4122668246
O       -0.1138702902   -0.1587649012    2.9216011605
O        0.2275077894   -3.6745134007    2.2346452455
H        3.1236710519   -7.9796252013    3.1279228973
H        0.8574029563   -8.1190131372    2.0864005589
H        4.0411812764   -5.7501935247    3.7514137474
H       -0.4563028156   -6.0413895442    1.6814426464
H        2.7483221866   -3.7004811798    3.3513335293
H        0.0219512525    0.0600173641    0.1038645862
H       -0.8382255861   -1.0155661077   -0.9857789943
H        0.6256915097   -2.9094798925   -0.3446603326
H        1.6243629473   -1.5545328399   -0.8602098786
H       -2.1082653289   -0.7218996922    1.1737508518
H       -1.6479815405   -2.3961679729    0.8986998311
H        2.5144515484   -2.5969185581    1.2353945413
H        2.0427924756   -0.9221497618    1.5169586765
H       -1.2228235109   -1.8801270643    3.2115663283
H        1.2195129047   -2.2458539914    3.3824981457
H       -0.5315493841    0.5168728186    2.3677658472
30   
torsion grid (150,)
C        2.5404128177   -7.0910782782    2.9544153087
C        1.2685094873   -7.1633314731    2.3704094330
C        3.0568928242   -5.8409116056    3.2994607309
C        0.5304174695   -6.0048879720    2.1363159987
C        2.3268017195   -4.6678381324    3.0701950291
C        1.0539981534   -4.7496954627    2.4869837877
C       -0.2881121344   -0.9851826962   -0.0308572353
C        0.9427337228   -1.9005374510   -0.0825455193
C       -1.2323950283   -1.4035266790    1.1059193707
C        1.6684097874   -1.9318673081    1.2695282183
C       -0.5263869158   -1.4608192210    2.4639331556
C        0.7308512879   -2.3414211885    2.4092942219
O       -0.0794301898   -0.1695130324    2.9085238024
O        0.2349670894   -3.6813977234    2.2342891564
H        3.1165815516   -7.9941643916    3.1348967700
H        0.8492143514   -8.1278135565    2.0948770703
H        4.0422805416   -5.7666698889    3.7528006471
H       -0.4573751424   -6.0463466582    1.6860711246
H        2.7569225218   -3.7130232853    3.3489044937
H        0.0384846814    0.0527239266    0.1148992410
H       -0.8252632841   -1.0132490834   -0.9855453197
H        0.6304665622   -2.9173927241   -0.3491198310
H        1.6332175124   -1.5653930034   -0.8644996664
H       -2.0933073675   -0.7237155947    1.1741814732
H       -1.6392925712   -2.3994401766    0.8986522242
H        2.5226534269   -2.6143137340    1.2281093018
H        2.0588203653   -0.9367671692    1.5103530583
H       -1.2074062616   -1.8871881458    3.2122925440
H        1.2345787454   -2.2551547274    3.3784586247
H       -0.6635856825    0.5018777419    2.5251129432
30   
torsion grid (165,)
C        2.5373687034   -7.1141749123    2.9572669236
C        1.2662091317   -7.1820794172    2.3711779688
C        3.0577704200   -5.8660028874    3.3036488679
C        0.5331358289   -6.0205603695    2.1367197441
C        2.3322426855   -4.6901624456    3.0739186059
C        1.0600331587   -4.7670635887    2.4888006866
C       -0.2722940641   -1.0112116501   -0.0358806056
C        0.9597797912   -1.9257656837   -0.0833850598
C       -1.2177069970   -1.4274744301    1.0999583707
C        1.6844647166   -1.9524760323    1.2696779856
C       -0.5090973071   -1.4738393212    2.4577441446
C        0.7448548981   -2.3576838293    2.4097123613
O       -0.0475959835   -0.1805012199    2.8794224757
O        0.2443175146   -3.6962296173    2.2357914656
H        3.1101960108   -8.0193002667    3.1381260218
H        0.8439490603   -8.1449164501    2.0943406633
H        4.0428063906   -5.7954256611    3.7583295289
H       -0.4539394338   -6.0581820916    1.6846296916
H        2.7656812700   -3.7371354681    3.3534945981
H        0.0519854522    0.0260496960    0.1143768247
H       -0.8068121076   -1.0412126617   -0.9921083916
H        0.6500510798   -2.9440385068   -0.3477151560
H        1.6511805929   -1.5916792464   -0.8650169702
H       -2.0793964751   -0.7481879765    1.1635492504
H       -1.6225613496   -2.4257100007    0.8989701399
H        2.5382890932   -2.6357821843    1.2324213530
H        2.0745603396   -0.9564604493    1.5067089384
H       -1.1887451697   -1.8902874077    3.2137696615
H        1.2470858627   -2.2725379406    3.3796678328
H       -0.7509335856    0.4612705276    2.6958492054
30   
torsion grid (180,)
C        2.5327644743   -7.0991327651    2.9629216624
C        1.2610896064   -7.1688378405    2.3780961038
C        3.0541701474   -5.8497663736    3.3034450126
C        0.5280572913   -6.0082428416    2.1389097247
C        2.3288436087   -4.6747684011    3.0690242446
C        1.0561414017   -4.7536592670    2.4851011705
C       -0.2745934885   -1.0102152470   -0.0551450808
C        0.9570904917   -1.9258465320   -0.0983092632
C       -1.2210999455   -1.4193113325    1.0818844952
C        1.6831469403   -1.9461853711    1.2544393268
C       -0.5085042549   -1.4586795698    2.4378383969
C        0.7435456722   -2.3450059099    2.3967434586
O       -0.0407382003   -0.1623925113    2.8449942605
O        0.2408788980   -3.6834766573    2.2285130853
H        3.1052596665   -8.0037712800    3.1472587551
H        0.8382648298   -8.1326854001    2.1057268345
H        4.0396388773   -5.7776853918    3.7569808445
H       -0.4592861495   -6.0473642603    1.6874945280
H        2.7628420798   -3.7205837951    3.3437449598
H        0.0493396530    0.0268608191    0.0941467405
H       -0.8078065100   -1.0438438509   -1.0120491635
H        0.6477072005   -2.9454703506   -0.3578841652
H        1.6485723865   -1.5953322936   -0.8814606517
H       -2.0788025971   -0.7355480789    1.1425230614
H       -1.6287954420   -2.4178323450    0.8864423370
H        2.5372569150   -2.6293442579    1.2199357889
H        2.0732390056   -0.9486770584    1.4859022907
H       -1.1846124261   -1.8697240152    3.2000742471
H        1.2441997057   -2.2548494014    3.3668623323
H       -0.8075665735    0.4299004293    2.8830026618
