24   
torsion grid (-165,)
C       -2.1204386129    4.0134340388   -1.9817636441
C       -4.4890049289    3.6139605334   -1.9855553061
C       -2.2336239679    0.1039243670   -2.5051366591
C       -0.7802082556    0.0583601611    1.2118963518
C       -3.0731522300    2.3597174858   -0.4861219953
C       -1.9850567537    1.2809826632   -0.4207164278
N       -3.1706406710    3.0160996508   -1.7918114686
O       -2.3516831228    0.0789113253   -1.0847352105
O       -1.8246008175    0.9911092484    0.9398375252
H       -1.1329481871    3.5553285573   -1.8813318570
H       -2.1855471801    4.8449722958   -1.2537329708
H       -2.1905876278    4.4344316412   -2.9897780405
H       -5.2603000628    2.8405741387   -1.9190798306
H       -4.5451799317    4.0650124404   -2.9816572143
H       -4.7223756655    4.3995634755   -1.2416292353
H       -2.3740704212   -0.9260406185   -2.8429071355
H       -1.2335152389    0.4456588959   -2.8132497535
H       -2.9794303113    0.7588537389   -2.9637031301
H       -0.6986136791   -0.0068605530    2.2988804176
H        0.1767363166    0.4106084678    0.7987103163
H       -1.0090843258   -0.9278576605    0.7967361042
H       -4.0182438028    1.8537314853   -0.2699923704
H       -2.8909768167    3.0839008877    0.3278929120
H       -1.0304557791    1.6363006547   -0.8526410477
24   
torsion grid (-150,)
C       -2.1851459481    3.9828112189   -2.0693420774
C       -4.5589217438    3.6475575965   -1.8997346445
C       -2.0562786531    0.1269748822   -2.4743759148
C       -0.8485058730    0.0053942801    1.1748575361
C       -3.0752670063    2.4398701489   -0.4245680561
C       -2.0285770970    1.3240314678   -0.3962676363
N       -3.2445139586    3.0281145823   -1.7544349461
O       -2.4635920489    0.1755954533   -1.1097248087
O       -1.8610964743    0.9839308446    0.9534836627
H       -1.2049359521    3.5014755768   -2.0110076357
H       -2.1774234345    4.8540502357   -1.3863961559
H       -2.3135283004    4.3512562379   -3.0921616560
H       -5.3401651810    2.8988628821   -1.7387099929
H       -4.6694077298    4.0404640399   -2.9157943894
H       -4.7263956779    4.4815606436   -1.1915306246
H       -2.3683938794   -0.8482080128   -2.8562123909
H       -0.9619400150    0.2081401090   -2.5641848319
H       -2.5268828723    0.9237598947   -3.0591777077
H       -0.7718123470   -0.1247193852    2.2562845001
H        0.1211493970    0.3488347984    0.7836501886
H       -1.1085379537   -0.9483496739    0.7046866832
H       -4.0176924696    1.9792645081   -0.1164882285
H       -2.8094608886    3.1959299105    0.3361319169
H       -1.0633117368    1.6550623075   -0.8219171127
24   
torsion grid (-135,)
C       -2.2178917793    4.0810506088   -2.0209328398
C       -4.5829298655    3.6641173524   -1.8990990928
C       -2.0057970429    0.0296868045   -2.3718881901
C       -0.8367404054    0.0124624810    1.0983388527
C       -3.0809376273    2.5168381132   -0.3838121557
C       -2.0630338432    1.3786042917   -0.3924211578
N       -3.2509982831    3.0945435718   -1.7186219601
O       -2.5847630496    0.2580193796   -1.0922880053
O       -1.8156309218    1.0357509840    0.9464438780
H       -1.2234017612    3.6364595734   -1.9208529481
H       -2.2619429881    4.9657690598   -1.3568572140
H       -2.3259247702    4.4240172574   -3.0550362413
H       -5.3394211562    2.8889669588   -1.7460888083
H       -4.6851963687    4.0402268600   -2.9224843217
H       -4.7965983230    4.5005459922   -1.2062840329
H       -2.4482976789   -0.8933596683   -2.7544881512
H       -0.9155630437   -0.1021020121   -2.3026219016
H       -2.2300247633    0.8525727608   -3.0608222530
H       -0.6949586260   -0.1294309589    2.1716650948
H        0.1204812086    0.3133974583    0.6455166817
H       -1.1705939352   -0.9263999104    0.6438204754
H       -4.0279744057    2.0801695556   -0.0562909083
H       -2.7825744956    3.2694527435    0.3667034309
H       -1.1181048207    1.6853430458   -0.8744660950
24   
torsion grid (-120,)
C       -2.2454798156    4.1779096981   -1.9645898190
C       -4.6013855811    3.6929114937   -1.9129415809
C       -1.9442434458   -0.1389710876   -2.2858800041
C       -0.8232476223    0.0016230908    0.9894559021
C       -3.0983278979    2.5385711953   -0.3988657378
C       -2.0868566030    1.3976227001   -0.4495596581
N       -3.2584615712    3.1566639246   -1.7162764976
O       -2.6603485136    0.2967811415   -1.1369776475
O       -1.7706481015    1.0572951226    0.8797214405
H       -1.2423900205    3.7565931964   -1.8485446997
H       -2.3302343332    5.0432548894   -1.2790710812
H       -2.3348547194    4.5455385218   -2.9920231631
H       -5.3379600499    2.8920233746   -1.8009235078
H       -4.6901976483    4.0949172244   -2.9277648075
H       -4.8568319084    4.5030416903   -1.2030507980
H       -2.4674140463   -1.0204271685   -2.6644786417
H       -0.9091619121   -0.4189562598   -2.0428634004
H       -1.9366592991    0.6347752709   -3.0640583433
H       -0.6146641723   -0.1248136790    2.0538513160
H        0.1129851503    0.2540211120    0.4677180506
H       -1.2213982524   -0.9345452663    0.5823036362
H       -4.0484738405    2.0982333459   -0.0856073428
H       -2.7954567150    3.2638967428    0.3751341016
H       -1.1665766514    1.7031697187   -0.9757837101
24   
torsion grid (-105,)
C       -2.2620367648    4.2632251670   -1.9040225488
C       -4.6156662367    3.7656054797   -1.9043495178
C       -1.8872568158   -0.3133111959   -2.1981507691
C       -0.7968047416    0.0158504975    0.9023635180
C       -3.1231535575    2.5403395321   -0.4372754798
C       -2.1053031839    1.4074385002   -0.5304192717
N       -3.2724790984    3.2262534340   -1.7209553586
O       -2.7046672566    0.3296787376   -1.2273240421
O       -1.7436064968    1.0689631306    0.7920777716
H       -1.2583176437    3.8410362146   -1.7963311777
H       -2.3596310072    5.0926154028   -1.1767677929
H       -2.3400675059    4.6819597514   -2.9126891887
H       -5.3493619281    2.9566513927   -1.8420882967
H       -4.6956006548    4.2188772788   -2.8981165209
H       -4.8834546441    4.5372728021   -1.1568569451
H       -2.4966533027   -1.1046324925   -2.6410227964
H       -0.9871108115   -0.7639305221   -1.7608873474
H       -1.5889653974    0.3880093252   -2.9888655431
H       -0.5172949405   -0.0458141739    1.9565300015
H        0.1046404587    0.2240417285    0.3054957911
H       -1.2244632096   -0.9436246343    0.5888252010
H       -4.0749860384    2.0821206083   -0.1562109023
H       -2.8304649778    3.2246218537    0.3764088992
H       -1.2030660288    1.7249623995   -1.0802686500
24   
torsion grid (-90,)
C       -3.5467417483    2.8580212498   -3.2478778648
C       -1.6098531255    3.9077685127   -2.2428953712
C       -3.4280149506   -0.7202724083    0.4782575823
C       -0.7049291977   -0.0092924747   -1.2257391581
C       -3.2232784649    2.6720946969   -0.8321924106
C       -2.7284318547    1.2172267900   -0.7901723265
N       -2.9781776230    3.4411607873   -2.0430250781
O       -3.1864323997    0.6816590232    0.4380396405
O       -1.3233944577    1.2335899743   -0.9177699451
H       -4.5888669660    2.5717809136   -3.0672222405
H       -3.0036591652    1.9665566395   -3.6156654596
H       -3.5375627626    3.6012809563   -4.0532158095
H       -1.2274590825    4.3311805256   -1.3097149845
H       -1.6124036256    4.7005632140   -3.0008310989
H       -0.9118772935    3.1189180317   -2.5645157617
H       -4.0869743130   -0.9048268611    1.3305222444
H       -2.5046837597   -1.2957025573    0.6168733308
H       -3.9289564404   -1.0673971134   -0.4365405880
H        0.2865513521    0.2171749991   -1.6259253686
H       -1.2757840670   -0.5642101270   -1.9845499016
H       -0.5894135763   -0.6369353487   -0.3341193808
H       -4.3043704253    2.6364118019   -0.6556751099
H       -2.7736773103    3.1943040963    0.0183512947
H       -3.1553116161    0.6236498492   -1.6170923409
24   
torsion grid (-75,)
C       -1.7789771357    4.1615250761   -1.6040324181
C       -4.1380419350    4.1611946552   -2.0723455391
C       -2.2249202727   -0.7936731683   -2.1315958441
C       -1.1036500639    0.9637932340    1.2281293175
C       -3.1843364464    2.4264691743   -0.6747357481
C       -2.3504765434    1.1480866201   -0.7950546606
N       -2.9660647309    3.3361720894   -1.7987319874
O       -3.0263451753    0.2837791664   -1.6562617565
O       -2.2142650266    0.5040039832    0.4737661108
H       -0.8992559596    3.5323575938   -1.4376983996
H       -1.8710581404    4.8506432411   -0.7412903294
H       -1.5928775750    4.7608267754   -2.5010088727
H       -4.9967514096    3.5201013338   -2.2918677615
H       -3.9488470688    4.7860755701   -2.9515241578
H       -4.4081150738    4.8298625410   -1.2319802323
H       -2.8532683919   -1.3777813741   -2.8070438159
H       -1.8847827325   -1.4312156127   -1.3071927072
H       -1.3532115241   -0.4176268640   -2.6865583136
H       -1.0857161429    0.3829992486    2.1530258260
H       -1.1858660060    2.0302749647    1.4839635035
H       -0.1575623285    0.8062315163    0.6879589440
H       -4.2305056627    2.1104526121   -0.6573859610
H       -2.9751940871    2.9110206125    0.2955418858
H       -1.3420917266    1.3663920815   -1.1891019569
24   
torsion grid (-60,)
C       -1.8109999155    4.1966933344   -1.5701767119
C       -4.1708403943    4.1810431899   -2.0325905584
C       -2.2488171318   -0.8978837438   -2.0347330270
C       -1.1070794693    0.9000423090    1.1738911042
C       -3.1912110659    2.4077066821   -0.7066878453
C       -2.3282101537    1.1528010197   -0.8574955879
N       -2.9866089280    3.3626502671   -1.7945863116
O       -2.9547172590    0.3145412807   -1.7812970280
O       -2.2029678080    0.4615148194    0.3865167969
H       -0.9211246603    3.5746847932   -1.4349515814
H       -1.9094283529    4.8475399448   -0.6787088725
H       -1.6387085701    4.8359662549   -2.4419085789
H       -5.0211097292    3.5372234272   -2.2758180224
H       -3.9927725633    4.8430652521   -2.8864890475
H       -4.4482181224    4.8118723677   -1.1655899739
H       -2.7957674173   -1.4135548957   -2.8266563640
H       -2.2057635173   -1.5285672832   -1.1415096125
H       -1.2248162379   -0.6917573220   -2.3814667954
H       -1.0972746620    0.2835196549    2.0754573131
H       -1.2030861422    1.9548291312    1.4697013077
H       -0.1529225832    0.7716120682    0.6407801090
H       -4.2304065078    2.0691210996   -0.7079410766
H       -2.9978043473    2.8611056724    0.2821418471
H       -1.3120505391    1.4058021861   -1.2126234160
24   
torsion grid (-45,)
C       -1.8209392063    4.2467188851   -1.5705566290
C       -4.1826815376    4.1925152155   -2.0166131100
C       -2.2763003518   -0.9546542620   -1.9764461333
C       -1.0735179514    0.8899516816    1.1289728691
C       -3.1579636578    2.4047667677   -0.7496589863
C       -2.2531461573    1.1819418826   -0.9196859945
N       -2.9793903124    3.3933584557   -1.8112047029
O       -2.8171274603    0.3632208131   -1.9064880021
O       -2.1374149558    0.4510516223    0.2989338145
H       -0.9155369107    3.6421798146   -1.4639705993
H       -1.9261303835    4.8665639432   -0.6578756111
H       -1.6724718758    4.9172355450   -2.4229302961
H       -5.0208671514    3.5380517248   -2.2731159856
H       -4.0252920591    4.8833717490   -2.8514668159
H       -4.4670205654    4.7910401705   -1.1290550976
H       -2.7161260108   -1.4128417674   -2.8650025627
H       -2.5293478527   -1.5414627332   -1.0894458282
H       -1.1819107271   -0.9332056710   -2.0896242780
H       -1.0675792508    0.2396239507    2.0063982260
H       -1.2079059031    1.9293332657    1.4611420776
H       -0.1048276188    0.8086186363    0.6137141683
H       -4.1852710739    2.0322619205   -0.7679724100
H       -2.9855261331    2.8399158904    0.2518767568
H       -1.2339894029    1.4780691848   -1.2315920509
24   
torsion grid (-30,)
C       -1.8410927973    4.2757803197   -1.5895458338
C       -4.2063739043    4.1671051662   -2.0044765892
C       -2.3480919418   -0.9761689556   -1.9860888997
C       -1.0814423316    0.8219870304    1.1172150609
C       -3.1207858298    2.3867757956   -0.7823069909
C       -2.1732788566    1.1982863949   -0.9653847679
N       -2.9801928819    3.3965321366   -1.8285741381
O       -2.6501638475    0.4168979698   -2.0342486978
O       -2.1057813034    0.4172580131    0.2218807818
H       -0.9178414048    3.6946392446   -1.5113829523
H       -1.9473379819    4.8743861913   -0.6627834214
H       -1.7259393767    4.9669566179   -2.4304451107
H       -5.0306203149    3.4954061345   -2.2617364325
H       -4.0782775096    4.8762009968   -2.8289552902
H       -4.4945759868    4.7424360710   -1.1027520410
H       -2.7078712793   -1.3848578571   -2.9331903886
H       -2.8510837609   -1.4738392704   -1.1525090360
H       -1.2669180973   -1.1586237203   -1.9059237766
H       -1.1114631396    0.1324120046    1.9636047512
H       -1.2368004239    1.8446204633    1.4889634452
H       -0.0914180973    0.7667642604    0.6411900722
H       -4.1340002407    1.9774690361   -0.8065425813
H       -2.9628448783    2.8142183998    0.2259320353
H       -1.1484634165    1.5373631250   -1.2036318704
24   
torsion grid (-15,)
C       -1.9371091571    4.1639257760   -2.0202951025
C       -4.3418331288    4.2218322656   -1.9475776002
C       -1.9935252994   -0.6971785073   -1.9525860720
C       -1.1715815472    0.2237643397    1.1058971155
C       -3.1786695093    2.4847535707   -0.7809669051
C       -2.0733086101    1.4280400004   -0.7590985613
N       -3.1578662435    3.3707433244   -1.9375764205
O       -2.0745382966    0.7216730827   -1.9947176940
O       -2.3253851247    0.6120659202    0.3665450674
H       -1.0709582651    3.5149471541   -2.1745005433
H       -1.7573197707    4.7817771322   -1.1174798161
H       -2.0001765702    4.8357825526   -2.8817356433
H       -5.2434286705    3.6009080194   -1.9546945654
H       -4.3467260969    4.8355930555   -2.8541397736
H       -4.4002252420    4.9009448159   -1.0736337617
H       -2.1669331077   -1.0317853154   -2.9779463493
H       -2.7506667226   -1.1347350485   -1.2949129681
H       -1.0003337624   -1.0490524503   -1.6349877185
H       -1.5252517482   -0.3948100030    1.9337469870
H       -0.6491343630    1.1006089108    1.5119204587
H       -0.4683404955   -0.3602758383    0.4988279784
H       -4.1305407541    1.9434770475   -0.7712175454
H       -3.1056276029    3.0434344402    0.1740190035
H       -1.0810867003    1.8913838842   -0.6417903871
24   
torsion grid (0,)
C       -1.9426175175    4.1885660127   -2.0005277256
C       -4.3486164018    4.1578241451   -1.9797275012
C       -2.1012219175   -0.6627729884   -1.9418159605
C       -1.1098453685    0.2075373790    1.1023187326
C       -3.1482111698    2.4657143813   -0.7854179497
C       -1.9976992800    1.4557759634   -0.7325464945
N       -3.1347790127    3.3507721213   -1.9428405371
O       -1.9137946571    0.7470218039   -1.9670502376
O       -2.2642223678    0.6336306748    0.3829625280
H       -1.0501622689    3.5724476332   -2.1384791037
H       -1.8037186031    4.8110236749   -1.0936775894
H       -2.0133249873    4.8593553395   -2.8622242208
H       -5.2266318326    3.5042695395   -2.0040360545
H       -4.3571119430    4.7694426361   -2.8877470197
H       -4.4504404473    4.8357175394   -1.1088588201
H       -2.1212259790   -0.9712849547   -2.9896920288
H       -3.0439446408   -0.9499314791   -1.4636387306
H       -1.2783745724   -1.1880703489   -1.4381142016
H       -1.4649510133   -0.4282636239    1.9163085303
H       -0.5717307279    1.0664430629    1.5259760718
H       -0.4202834129   -0.3685168901    0.4725424641
H       -4.0772341672    1.8855659605   -0.8004036607
H       -3.1267370986    3.0277091286    0.1702274740
H       -1.0307802124    1.9593830197   -0.5914410226
24   
torsion grid (15,)
C       -1.9538154240    4.1710467837   -2.0288439022
C       -4.3592047046    4.0883061842   -2.0040216090
C       -2.1641511978   -0.5575494723   -1.9444370445
C       -1.0691800585    0.1611204704    1.1069817514
C       -3.1222133076    2.4549496038   -0.7676083239
C       -1.9252841051    1.4994072127   -0.6684698366
N       -3.1277683157    3.3096165273   -1.9476285712
O       -1.7300137399    0.7967438324   -1.8919523770
O       -2.2193111066    0.6649426223    0.4293361486
H       -1.0497308849    3.5698746794   -2.1558308697
H       -1.8257538894    4.8174068481   -1.1373208066
H       -2.0415594942    4.8201101609   -2.9055196511
H       -5.2228248580    3.4151861189   -2.0063621087
H       -4.3836134103    4.6730560170   -2.9293177630
H       -4.4741786794    4.7884546690   -1.1526874338
H       -2.0370244486   -0.8633333991   -2.9854817948
H       -3.2188571606   -0.6693713483   -1.6655774184
H       -1.5636961251   -1.2161972519   -1.3053526352
H       -1.4330172614   -0.5091621197    1.8886712700
H       -0.4989768277    0.9784310254    1.5693552336
H       -0.4071137066   -0.3966582730    0.4332824653
H       -4.0265096621    1.8366152144   -0.7826316696
H       -3.1443060898    3.0401973370    0.1737672632
H       -0.9906307721    2.0460633741   -0.4865800799
24   
torsion grid (30,)
C       -1.9709687201    4.1267021103   -2.0845438633
C       -4.3747198197    3.9993694164   -2.0276165518
C       -2.1987271276   -0.3928181165   -1.9822497458
C       -1.0335170605    0.1047926519    1.1153489355
C       -3.0924943613    2.4551459392   -0.7242524013
C       -1.8593388362    1.5480862935   -0.5829832382
N       -3.1274177305    3.2485709594   -1.9456781444
O       -1.5533903341    0.8621185786   -1.7875147356
O       -2.1757947221    0.6938083841    0.4942026971
H       -1.0577558190    3.5351266590   -2.1864904211
H       -1.8493768971    4.8228268605   -1.2305822559
H       -2.0786487479    4.7254023432   -2.9942718406
H       -5.2250197728    3.3107274771   -1.9835486803
H       -4.4210863372    4.5338513097   -2.9820084282
H       -4.4938746714    4.7410365061   -1.2130040425
H       -1.9264278810   -0.7098088840   -2.9912914051
H       -3.2910186964   -0.3110785117   -1.9183363327
H       -1.8626415336   -1.1478161875   -1.2631423217
H       -1.4076225952   -0.5646525722    1.8927647130
H       -0.3990215988    0.8744463198    1.5761526032
H       -0.4315351181   -0.4691332036    0.4004141405
H       -3.9790891866    1.8124568329   -0.7045025458
H       -3.1325850356    3.0835156175    0.1880150664
H       -0.9576233274    2.1311521944   -0.3568535181
24   
torsion grid (45,)
C       -1.9872473489    4.0574221412   -2.1326669278
C       -4.3872049001    3.8851846715   -2.0381060621
C       -2.2430108877   -0.1912815452   -2.0461483261
C       -1.0063219858    0.0301232268    1.1337469571
C       -3.0563038577    2.4570443917   -0.6520775185
C       -1.8038448637    1.5789296791   -0.4803375010
N       -3.1236797736    3.1654604298   -1.9238066622
O       -1.4191214652    0.9094178023   -1.6655479075
O       -2.1346703961    0.7055525087    0.5791955975
H       -1.0622855835    3.4791427843   -2.1904935961
H       -1.8832960850    4.8180545212   -1.3335800204
H       -2.1098338333    4.5830694764   -3.0847374674
H       -5.2231165384    3.1852254568   -1.9356451055
H       -4.4560468739    4.3534020636   -3.0253563450
H       -4.5096568628    4.6773888283   -1.2735370449
H       -1.7818204339   -0.6130326320   -2.9415453766
H       -3.2611096737    0.1357855135   -2.2913595786
H       -2.2898546041   -0.9549597540   -1.2630470933
H       -1.3858110748   -0.6162452522    1.9278450318
H       -0.2916144034    0.7469757988    1.5616663917
H       -0.4903343136   -0.5783532982    0.3816070898
H       -3.9333927052    1.8071236447   -0.5711386881
H       -3.0894951298    3.1438611788    0.2167675960
H       -0.9245359814    2.1806197716   -0.2171274952
24   
torsion grid (60,)
C       -1.9919679591    4.0300416001   -2.1241255412
C       -4.3887997196    3.8008312096   -2.0650739785
C       -2.3229866424   -0.0629937536   -2.1111728624
C       -0.9486049865    0.0246572597    1.1532743207
C       -3.0470701574    2.4222702622   -0.6384331554
C       -1.7819962134    1.5721948476   -0.4441966470
N       -3.1101175097    3.1130804923   -1.9212005870
O       -1.3670274480    0.8649251141   -1.5925164472
O       -2.0837761330    0.7251224753    0.6483570130
H       -1.0517224111    3.4749656625   -2.1527851696
H       -1.9239653861    4.8069782722   -1.3373813026
H       -2.1088505726    4.5347020809   -3.0881441756
H       -5.2093465846    3.0820553726   -1.9690470890
H       -4.4517566479    4.2569041495   -3.0582842413
H       -4.5424185426    4.5974540804   -1.3112473796
H       -1.8006381878   -0.6379326413   -2.8787996682
H       -3.1685334359    0.4637522164   -2.5677524301
H       -2.6840281279   -0.7419440205   -1.3306393708
H       -1.2979524330   -0.5694723407    2.0002612865
H       -0.1750178190    0.7257320075    1.4980515697
H       -0.5147326105   -0.6360627099    0.3941633903
H       -3.9136866134    1.7584358576   -0.5585024188
H       -3.1020169503    3.1194791545    0.2200397282
H       -0.9138783046    2.1977002842   -0.1982515010
24   
torsion grid (75,)
C       -1.9826211927    4.0121291809   -2.0867894104
C       -4.3779100990    3.7570553536   -2.0784363022
C       -2.4033718079   -0.0047170696   -2.1891701559
C       -0.8849590157    0.0698044598    1.2020942133
C       -3.0517520581    2.3650869283   -0.6498664003
C       -1.7842827126    1.5289983858   -0.4418706550
N       -3.0947141868    3.0798466882   -1.9218842685
O       -1.3725596068    0.7471355606   -1.5408339314
O       -2.0388150046    0.7482776449    0.7128806268
H       -1.0354033539    3.4688080701   -2.1134915896
H       -1.9342794608    4.7719641782   -1.2824551936
H       -2.0904854322    4.5363324944   -3.0412572896
H       -5.1922744143    3.0277492629   -2.0149998366
H       -4.4253119186    4.2337302894   -3.0626739153
H       -4.5552134385    4.5350955726   -1.3108671784
H       -1.8962441041   -0.6581410102   -2.9025790483
H       -3.0886273536    0.6598262719   -2.7243532760
H       -2.9569104225   -0.6224453076   -1.4713444559
H       -1.1942586171   -0.4645499261    2.1028542138
H       -0.0889856503    0.7834374315    1.4610206590
H       -0.4969489319   -0.6422333006    0.4654831341
H       -3.9155443788    1.6949862592   -0.5967116344
H       -3.1266339801    3.0471229383    0.2182354082
H       -0.9163367358    2.1741037569   -0.2490701772
24   
torsion grid (90,)
C       -1.9584065583    4.0129517957   -2.0396734604
C       -4.3483878779    3.7211747977   -2.0953338982
C       -2.4710482583    0.0171988161   -2.2815476929
C       -0.8241652350    0.1026191478    1.2347870738
C       -3.0371684688    2.3131961344   -0.6682281983
C       -1.7803544776    1.4667589384   -0.4576596770
N       -3.0586717033    3.0590687424   -1.9245242593
O       -1.4162566099    0.5868253159   -1.5002769276
O       -1.9855025190    0.7811882354    0.7662962240
H       -1.0005974695    3.4881413306   -2.0641236533
H       -1.9370917483    4.7484415478   -1.2122243395
H       -2.0568928099    4.5635178882   -2.9800612123
H       -5.1521580376    2.9778195363   -2.0758371137
H       -4.3776150074    4.2268485905   -3.0655802334
H       -4.5578721867    4.4722883139   -1.3095370786
H       -1.9874625992   -0.6823926743   -2.9672570189
H       -2.9959361300    0.7893947274   -2.8504215724
H       -3.1801927616   -0.5401863678   -1.6556940859
H       -1.0884051989   -0.3419150655    2.1967052873
H        0.0106539701    0.8047756884    1.3788519536
H       -0.5111798136   -0.6825839339    0.5382750459
H       -3.9080169752    1.6510135878   -0.6397734488
H       -3.1157848355    2.9770046825    0.2126271493
H       -0.8964448568    2.1098715671   -0.3431123880
24   
torsion grid (105,)
C       -1.9728058782    4.0868535031   -1.9372381871
C       -4.3257164342    3.6402499236   -2.1574903569
C       -2.5825937187    0.0103808128   -2.3088159205
C       -0.7695166732    0.1422239258    1.2712254221
C       -3.0158423904    2.2933638503   -0.6642924704
C       -1.7822443413    1.4130903434   -0.4603059535
N       -3.0094462320    3.0576924873   -1.9113319396
O       -1.5333196190    0.4049329438   -1.4228434851
O       -1.9215628223    0.8570506683    0.8355566373
H       -0.9801752508    3.6346065954   -1.8774234234
H       -2.0732070432    4.8177262830   -1.1118038717
H       -2.0294065775    4.6323850962   -2.8840113604
H       -5.0782551783    2.8469014757   -2.2129422331
H       -4.3207890313    4.1700178187   -3.1152261242
H       -4.6375732335    4.3547862476   -1.3718037242
H       -2.1522842058   -0.7678430889   -2.9436442549
H       -2.9169490292    0.8492751606   -2.9246864350
H       -3.4359523639   -0.4192492039   -1.7668624118
H       -0.9688015182   -0.1761457919    2.2967849647
H        0.1213449770    0.7882765984    1.2605264240
H       -0.5804407246   -0.7337027823    0.6418159333
H       -3.9028593281    1.6536214624   -0.6487858019
H       -3.0830956841    2.9471313820    0.2237479031
H       -0.8670112376    2.0228612812   -0.4664138952
24   
torsion grid (120,)
C       -1.9877271138    4.1384863839   -1.8350121343
C       -4.2812986603    3.5438961562   -2.2405414268
C       -2.6957788697    0.0004139274   -2.3417886763
C       -0.7342230277    0.1109058435    1.2646861968
C       -2.9932674351    2.2701545063   -0.6522290973
C       -1.7939948498    1.3378724570   -0.4699417227
N       -2.9537429970    3.0438597619   -1.8943493738
O       -1.6971034643    0.2248314390   -1.3481819518
O       -1.8591254773    0.8905241502    0.8692127287
H       -0.9824417101    3.7543060070   -1.6458947981
H       -2.2276608233    4.8770927488   -1.0462869327
H       -1.9675734091    4.6592727595   -2.7972703182
H       -4.9731974404    2.7047297161   -2.3657253413
H       -4.2334659123    4.0873519856   -3.1895264341
H       -4.7014256376    4.2259541590   -1.4770017644
H       -2.3583892787   -0.8757237140   -2.9009814344
H       -2.7930753014    0.8564925702   -3.0147899469
H       -3.6740609333   -0.2318978729   -1.8994408808
H       -0.8583773096   -0.0973424112    2.3296250945
H        0.2025341513    0.6679634828    1.1123260221
H       -0.6838549626   -0.8294774130    0.7064046326
H       -3.9052869114    1.6678738861   -0.6356423565
H       -3.0297260654    2.9186118199    0.2401074139
H       -0.8509721883    1.8909695345   -0.6006704009
24   
torsion grid (135,)
C       -2.0188329850    4.1491925922   -1.8129696603
C       -4.2982935130    3.5016139162   -2.2207904049
C       -2.6655697384    0.0657147651   -2.3916205570
C       -0.7041226676    0.1217902217    1.2830235218
C       -2.9846887414    2.2807893904   -0.6044880510
C       -1.7987777211    1.3252703842   -0.4457233578
N       -2.9633502504    3.0356759907   -1.8581573941
O       -1.8059566380    0.1561703749   -1.2591545625
O       -1.8133975535    0.9346188198    0.9077749800
H       -1.0097763896    3.7876314395   -1.5992245042
H       -2.2824363158    4.9014585231   -1.0449475310
H       -1.9936923821    4.6479165550   -2.7868816441
H       -4.9721424988    2.6463468759   -2.3342455632
H       -4.2560033529    4.0275519740   -3.1799831561
H       -4.7372078909    4.1898128271   -1.4734842266
H       -2.4887185041   -0.9278401214   -2.8114059436
H       -2.4409404829    0.8326885017   -3.1387248497
H       -3.7257294587    0.1396436459   -2.1181704587
H       -0.7757230205   -0.0222795706    2.3632811461
H        0.2467250323    0.6228303636    1.0473950901
H       -0.7314593554   -0.8482799641    0.7767867700
H       -3.9064346422    1.6956769622   -0.5490698164
H       -2.9810834627    2.9422901427    0.2786074608
H       -0.8498686880    1.8460171565   -0.6559672696
24   
torsion grid (150,)
C       -2.0345868989    4.1375758891   -1.7942462309
C       -4.3128336039    3.4949024600   -2.2106982399
C       -2.6350797961    0.0712528698   -2.4171389377
C       -0.6827370199    0.1401826321    1.2833879749
C       -3.0041463938    2.2709135801   -0.5900145025
C       -1.8310693700    1.2942796344   -0.4428459552
N       -2.9802673586    3.0252310965   -1.8443715363
O       -1.9472789275    0.0742694632   -1.1706356895
O       -1.7810668437    0.9765264879    0.9242842023
H       -1.0292373420    3.7755950578   -1.5637355282
H       -2.3066171677    4.8947488925   -1.0339863043
H       -1.9952596956    4.6305650179   -2.7707163163
H       -4.9894528374    2.6419460522   -2.3253263523
H       -4.2664931077    4.0200701965   -3.1701829203
H       -4.7515580292    4.1849479083   -1.4649964210
H       -2.5593406775   -0.9532821612   -2.7904389258
H       -2.1861829432    0.7629291742   -3.1383191496
H       -3.6958866675    0.3265794059   -2.3078035956
H       -0.6927003912    0.0664572148    2.3729808783
H        0.2701164308    0.5845783756    0.9596369645
H       -0.7805174640   -0.8569075887    0.8431205755
H       -3.9315743833    1.6946223066   -0.5283429715
H       -2.9854574644    2.9332719734    0.2919465876
H       -0.8834338048    1.7719063988   -0.7473583257
24   
torsion grid (165,)
C       -2.0483915390    4.1260318587   -1.7718268045
C       -4.3313667618    3.5101941375   -2.1983695807
C       -2.5880621687    0.0497795439   -2.4243454844
C       -0.6597984191    0.1579438544    1.2600901595
C       -3.0393110266    2.2656775611   -0.5777468754
C       -1.8816226268    1.2660145092   -0.4435890685
N       -3.0052222675    3.0236580262   -1.8304941935
O       -2.1032299294    0.0139317239   -1.0865421448
O       -1.7501955725    1.0169870558    0.9287965695
H       -1.0498712784    3.7535452830   -1.5281863868
H       -2.3207764887    4.8870331623   -1.0154906929
H       -1.9921697530    4.6171559556   -2.7484968102
H       -5.0180722250    2.6657883383   -2.3163824583
H       -4.2766155816    4.0373032593   -3.1564108083
H       -4.7633688189    4.2035608063   -1.4518211449
H       -2.5685377163   -0.9845973155   -2.7770420353
H       -1.9586303145    0.6719424219   -3.0725854074
H       -3.6152845633    0.4277467193   -2.4816420068
H       -0.5953258907    0.1468057235    2.3502075095
H        0.2828612105    0.5448827174    0.8457796043
H       -0.8247652542   -0.8574537697    0.8873930419
H       -3.9728915631    1.6983134236   -0.5204890988
H       -3.0114599365    2.9257788306    0.3056107066
H       -0.9448026789    1.6925826402   -0.8463239184
24   
torsion grid (180,)
C       -2.0645924263    4.0988135080   -1.7830658891
C       -4.3707051887    3.5384723720   -2.1549895013
C       -2.4904140205    0.0175912775   -2.4270728407
C       -0.6597024380    0.1529894863    1.2308881669
C       -3.0767363459    2.2776598350   -0.5481188921
C       -1.9415730988    1.2494849445   -0.4331006191
N       -3.0497993803    3.0204518010   -1.8108248466
O       -2.2521723523   -0.0082003897   -1.0236974524
O       -1.7403952363    1.0370106641    0.9349192523
H       -1.0717249450    3.7042397288   -1.5511176999
H       -2.3046468959    4.8756612794   -1.0318158481
H       -2.0126550433    4.5764068755   -2.7667063984
H       -5.0819036529    2.7114853538   -2.2477942531
H       -4.3231676855    4.0538374182   -3.1198313894
H       -4.7670807567    4.2512255960   -1.4068908590
H       -2.5258602195   -1.0260942759   -2.7497829070
H       -1.6856918352    0.5384572928   -2.9640265339
H       -3.4367683432    0.5103257718   -2.6747093671
H       -0.5362766293    0.1687246100    2.3157962135
H        0.2699715683    0.4996177872    0.7558857397
H       -0.8748694632   -0.8660137743    0.8958608733
H       -4.0181384691    1.7253414148   -0.4735273572
H       -3.0210829153    2.9474733535    0.3268536042
H       -1.0157803795    1.6276135253   -0.9060083401
