20   
torsion grid (-165,)
C        2.0442872496   -1.0478105384   -0.0362229856
C        0.8895257955   -0.6105695483    0.6167571807
C        3.1301117847   -1.4801271583    0.7232991382
C        0.8322975927   -0.6264720898    2.0126052306
C        3.0784163585   -1.5141229286    2.1294810507
C        1.9008174624   -1.0854375465    2.7961897325
C        4.2542422759   -2.0450302320    2.8895617401
C        1.7475133054   -1.0869103799    4.2991545864
C        5.6382987088   -2.0232873092    2.2497393332
O        4.1312497233   -2.5264098342    4.0117064857
H        2.1010298628   -1.0463672257   -1.1213145825
H        0.0365128598   -0.2555442239    0.0438252110
H        4.0234854393   -1.8205177984    0.2097123244
H       -0.0688512208   -0.2772305004    2.5110776505
H        1.6730459733   -2.1069467008    4.6846575032
H        2.6090408727   -0.6367981413    4.7988245450
H        0.8472190770   -0.5351356714    4.5843859271
H        6.3603732543   -1.7315717673    3.0155875924
H        5.7286447361   -1.3656323269    1.3845808624
H        5.8930131779   -3.0420750164    1.9355912068
20   
torsion grid (-150,)
C        2.0479280726   -1.0484321993   -0.0326166009
C        0.8790219652   -0.6303270105    0.6077709950
C        3.1324143980   -1.4617706384    0.7386936064
C        0.8087961997   -0.6423245835    2.0028423659
C        3.0692552452   -1.4912736674    2.1448823956
C        1.8787479016   -1.0771152147    2.7986943081
C        4.2523912437   -1.9921829530    2.9140520818
C        1.7094674100   -1.0696049912    4.2997070730
C        5.6122691808   -2.0515786364    2.2286706559
O        4.1512305050   -2.3910346030    4.0704085737
H        2.1156570427   -1.0477594135   -1.1170851664
H        0.0251475276   -0.2929132321    0.0255297189
H        4.0369699814   -1.7857512753    0.2345481714
H       -0.1033485414   -0.3079349243    2.4913719342
H        1.6727618064   -2.0874391192    4.6965264169
H        2.5471881357   -0.5803112889    4.8027186221
H        0.7843053085   -0.5519053210    4.5689772845
H        6.3863001085   -1.9970946467    2.9957294974
H        5.7625763018   -1.2693129527    1.4818678111
H        5.7123580582   -3.0189234042    1.7212238963
20   
torsion grid (-135,)
C        2.1059152505   -1.0576046450   -0.0370418564
C        0.9221713945   -0.6672633397    0.5933154599
C        3.1893617681   -1.4545247257    0.7437134326
C        0.8393648797   -0.6855683355    1.9873885027
C        3.1163801796   -1.4873423998    2.1499729259
C        1.9115886574   -1.0956218965    2.7935909847
C        4.3092113460   -1.9513451379    2.9277927193
C        1.7246413847   -1.0879311408    4.2923087508
C        5.6399172490   -2.1177691136    2.2045235283
O        4.2416362728   -2.2205006861    4.1236820299
H        2.1850083388   -1.0498732025   -1.1207135168
H        0.0663808440   -0.3471654051    0.0041418983
H        4.1048562359   -1.7554238555    0.2459751664
H       -0.0850774446   -0.3743629643    2.4678964220
H        1.7667013411   -2.1002125134    4.7022703532
H        2.5155799632   -0.5276298812    4.7970961923
H        0.7579733725   -0.6428785463    4.5452586825
H        6.4225211026   -2.2467501270    2.9529946039
H        5.8762289104   -1.2670655557    1.5593063688
H        5.6142312950   -3.0130945640    1.5722908240
20   
torsion grid (-120,)
C        2.1071399203   -1.0191399295   -0.0286188956
C        0.9067481733   -0.6780078091    0.5985419876
C        3.1979877011   -1.3911887977    0.7537834742
C        0.8177207311   -0.7147770971    1.9917171494
C        3.1233072910   -1.4328382218    2.1601931514
C        1.9021064396   -1.0862756140    2.8005682151
C        4.3353019133   -1.8413429101    2.9399628980
C        1.7046597302   -1.0947761701    4.2977333424
C        5.6098347516   -2.1978924726    2.1843766860
O        4.3341921018   -1.8978138923    4.1665954535
H        2.1923736038   -0.9956686470   -1.1115971557
H        0.0424626693   -0.3844235737    0.0079269873
H        4.1250757258   -1.6539485244    0.2566542942
H       -0.1214677643   -0.4474914532    2.4699714247
H        1.8932416985   -2.0841720167    4.7218425331
H        2.4020535474   -0.4182883480    4.7982386475
H        0.6814672643   -0.7932388092    4.5400188226
H        6.3737512135   -2.4654593742    2.9150516609
H        5.9666502453   -1.3550003324    1.5833322532
H        5.4488968181   -3.0428646086    1.5067306627
20   
torsion grid (-105,)
C        2.1615265022   -0.9961505340   -0.0389523850
C        0.9519640449   -0.7003131282    0.5938980307
C        3.2619915987   -1.3513246326    0.7380721565
C        0.8632624902   -0.7582536316    1.9865499267
C        3.1896820412   -1.4044748152    2.1437497027
C        1.9615878978   -1.0989157156    2.7898963430
C        4.4182004022   -1.7667814059    2.9196659056
C        1.7715794345   -1.1287005399    4.2879077598
C        5.6268006638   -2.3144875019    2.1702141146
O        4.4871766370   -1.6174442811    4.1362627525
H        2.2454336542   -0.9538853179   -1.1214727511
H        0.0784490835   -0.4273849230    0.0070191449
H        4.1975005223   -1.5801719287    0.2392144352
H       -0.0848685378   -0.5310188664    2.4679651525
H        2.0915850210   -2.0808381253    4.7185076686
H        2.3741304832   -0.3606408968    4.7794262299
H        0.7184547266   -0.9643935217    4.5336710294
H        6.3269504868   -2.7146588624    2.9047641913
H        6.1293743280   -1.5090615824    1.6222636189
H        5.3593036199   -3.0950384813    1.4526844281
20   
torsion grid (-90,)
C        2.1385533877   -0.9772959374   -0.0396109286
C        0.9226371365   -0.7132333435    0.5953311264
C        3.2472780053   -1.3144149301    0.7342676219
C        0.8366440018   -0.7797214658    1.9880230285
C        3.1768374103   -1.3711998410    2.1393333965
C        1.9447874163   -1.0937339878    2.7883660862
C        4.4170629315   -1.6915189586    2.9143643271
C        1.7639844678   -1.1298788817    4.2875702715
C        5.5910123476   -2.3470197047    2.1960223099
O        4.5291078400   -1.4101956573    4.1038008634
H        2.2206663624   -0.9263106552   -1.1218923361
H        0.0422516285   -0.4592824940    0.0101930466
H        4.1890461487   -1.5179517003    0.2353086429
H       -0.1167375210   -0.5796235598    2.4712513106
H        2.1694100441   -2.0450347568    4.7259494675
H        2.2961176644   -0.3045490357    4.7678291057
H        0.7015913343   -1.0581923250    4.5378590907
H        6.1812179306   -2.8833931214    2.9413930504
H        6.2353263920   -1.5687577610    1.7699669330
H        5.2943867157   -3.0309789228    1.3983822384
20   
torsion grid (-75,)
C        2.1627069051   -0.9774690178   -0.0335012470
C        0.9471117217   -0.7320283852    0.6093828842
C        3.2800660875   -1.3061242322    0.7321961476
C        0.8707851074   -0.8050742847    2.0025332902
C        3.2183802874   -1.3680693131    2.1370243154
C        1.9883064694   -1.1054960237    2.7946226339
C        4.4665921374   -1.6661269860    2.9077213120
C        1.8217714986   -1.1455774667    4.2955464313
C        5.6150055752   -2.4013953898    2.2248699323
O        4.6048939864   -1.3089040910    4.0736421812
H        2.2382135491   -0.9196329049   -1.1159140376
H        0.0599623116   -0.4875581925    0.0304560801
H        4.2222183451   -1.4935684218    0.2272657174
H       -0.0822150519   -0.6198631324    2.4924425965
H        2.2690568781   -2.0412769335    4.7334854621
H        2.3217661210   -0.2959658826    4.7680179498
H        0.7596274333   -1.1185225367    4.5553100466
H        6.0420500010   -3.0930626679    2.9553087883
H        6.4026785178   -1.6806768102    1.9778249365
H        5.3341470488   -2.9529919387    1.3271887487
20   
torsion grid (-60,)
C        2.1315721228   -0.9798564576   -0.0450918789
C        0.9171052379   -0.7596696835    0.6085383007
C        3.2634892279   -1.2824578383    0.7102953819
C        0.8557817346   -0.8287721403    2.0026963429
C        3.2164812211   -1.3403099886    2.1157029132
C        1.9875579700   -1.1000932360    2.7845825795
C        4.4759479764   -1.6073581017    2.8806495314
C        1.8373300205   -1.1360632996    4.2875685622
C        5.6048426721   -2.4038862584    2.2347207221
O        4.6280728323   -1.2002821821    4.0282405894
H        2.1958290539   -0.9229402305   -1.1282630940
H        0.0192218643   -0.5372104024    0.0373731016
H        4.2045259245   -1.4483431803    0.1959569208
H       -0.0962523018   -0.6627255146    2.5012857069
H        2.3106732242   -2.0183621243    4.7257265589
H        2.3204917106   -0.2716718141    4.7502148788
H        0.7776153210   -1.1345945036    4.5583379480
H        5.8297076123   -3.2421664696    2.9012311141
H        6.5047614412   -1.7821887882    2.1987889985
H        5.3866712900   -2.7982980553    1.2426956004
20   
torsion grid (-45,)
C        2.1495993108   -1.2688601069   -0.0100932823
C        1.0065323758   -0.7971618013    0.6394712168
C        3.2578183397   -1.6382199691    0.7503707515
C        0.9828449337   -0.7168264116    2.0341073596
C        3.2399558841   -1.5752415426    2.1563528437
C        2.0743909546   -1.1116057942    2.8208402562
C        4.4385029238   -2.0432784297    2.9221228069
C        1.9573920030   -1.0109373755    4.3237121115
C        5.8099134062   -2.0404431822    2.2543437971
O        4.3455546898   -2.4530883030    4.0751147798
H        2.1801914771   -1.3421624239   -1.0937606828
H        0.1364930453   -0.4898161972    0.0645847292
H        4.1421581225   -2.0059343358    0.2399578684
H        0.0904355316   -0.3414532701    2.5293091083
H        1.8995972794   -2.0026389237    4.7796119341
H        2.8273439170   -0.5228144343    4.7702711546
H        1.0602225730   -0.4460449970    4.5926414746
H        6.1043217228   -3.0713058721    2.0309954929
H        6.5271637065   -1.6380411018    2.9740651381
H        5.8645868337   -1.4480237594    1.3402061015
20   
torsion grid (-30,)
C        2.1537851718   -1.2698698393   -0.0069914938
C        0.9967152185   -0.8182377259    0.6321602585
C        3.2612515983   -1.6184079872    0.7637227026
C        0.9607208542   -0.7335620387    2.0260749179
C        3.2322717671   -1.5506046489    2.1696719188
C        2.0539740516   -1.1029042559    2.8232289495
C        4.4381487598   -1.9885155397    2.9415486987
C        1.9218122142   -0.9937691723    4.3240309157
C        5.7860641788   -2.0664488684    2.2332877142
O        4.3663410168   -2.3204339561    4.1209820413
H        2.1948388036   -1.3443488879   -1.0902400672
H        0.1254160368   -0.5295179465    0.0495511491
H        4.1569027526   -1.9688900245    0.2613021759
H        0.0573964033   -0.3736632653    2.5128591981
H        1.8984995082   -1.9826182471    4.7893509432
H        2.7698302239   -0.4699813358    4.7720176279
H        1.0016784305   -0.4609501549    4.5807064724
H        5.9211585515   -3.0701558325    1.8141383052
H        6.5672862463   -1.8990469069    2.9770173247
H        5.8975242052   -1.3389977390    1.4265219984
20   
torsion grid (-15,)
C        2.2956754619   -0.7385053044    0.0007952712
C        1.0948561008   -0.3944156471    0.6258309381
C        3.3266020124   -1.2795130904    0.7660351984
C        0.9427205267   -0.6017497967    1.9986441612
C        3.1827710495   -1.5036541334    2.1490946267
C        1.9603662304   -1.1597779255    2.7864928915
C        4.3196513120   -2.1174444565    2.9063724185
C        1.7004230683   -1.3528358521    4.2617197875
C        5.6828077699   -2.2188957284    2.2325455006
O        4.1806049187   -2.5601137060    4.0429398384
H        2.4283788410   -0.5844093292   -1.0665854867
H        0.2797110640    0.0360747702    0.0494697579
H        4.2560234707   -1.5431585843    0.2729020274
H        0.0059089217   -0.3249094042    2.4762317221
H        1.6834214008   -2.4133971829    4.5254110122
H        2.4863450478   -0.9045678577    4.8746635454
H        0.7401891339   -0.9047343699    4.5330915412
H        5.6794823304   -3.0243226557    1.4892507396
H        6.4236677335   -2.4529649894    2.9980789384
H        5.9670607676   -1.2945116372    1.7219439394
20   
torsion grid (0,)
C        2.3290830813   -0.7105589059    0.0065156141
C        1.1070054202   -0.4150315651    0.6146496205
C        3.3634877705   -1.2288257130    0.7823661862
C        0.9403652117   -0.6419560951    1.9824798677
C        3.2104283020   -1.4630015269    2.1633043468
C        1.9670145051   -1.1630245833    2.7841226797
C        4.3648751622   -2.0212733517    2.9376004972
C        1.6875137745   -1.3724529814    4.2533344231
C        5.6672517058   -2.3177805618    2.2039433470
O        4.2948778387   -2.2469322506    4.1425803560
H        2.4743443661   -0.5397547714   -1.0566804785
H        0.2857877345   -0.0096570502    0.0287535307
H        4.3080576713   -1.4547152286    0.3002515699
H       -0.0151387804   -0.4085889521    2.4459450220
H        1.8220396841   -2.4177728286    4.5424353628
H        2.3767884483   -0.7993734077    4.8785896472
H        0.6622773060   -1.0689132604    4.4842098822
H        5.5176442605   -3.0532170919    1.4065629205
H        6.3813553982   -2.7135642675    2.9267523328
H        6.0824207229   -1.4136656631    1.7464655494
20   
torsion grid (15,)
C        2.3210666706   -0.6655818129    0.0160751710
C        1.0844166828   -0.4261420398    0.6197316991
C        3.3700682021   -1.1540324176    0.7920288796
C        0.9191910460   -0.6719178630    1.9846659053
C        3.2201752760   -1.3961739807    2.1714058066
C        1.9649360597   -1.1481842926    2.7892103306
C        4.3976635594   -1.8917087517    2.9528617996
C        1.6929026402   -1.3768275329    4.2571519462
C        5.6261680330   -2.3856959247    2.1983545963
O        4.4107207044   -1.8910533584    4.1804228807
H        2.4652188958   -0.4778576214   -1.0444145188
H        0.2498876831   -0.0520613336    0.0318534401
H        4.3267785989   -1.3379808665    0.3151828574
H       -0.0493268021   -0.4876531818    2.4433240515
H        1.9800724391   -2.3833405336    4.5714521648
H        2.2744873306   -0.6916328698    4.8791480034
H        0.6294527071   -1.2298218982    4.4667974501
H        5.3681079626   -3.0428512711    1.3631594395
H        6.2623936432   -2.9251390729    2.9011505480
H        6.1899339605   -1.5369877911    1.7945280538
20   
torsion grid (30,)
C        2.2638188761   -0.6388323674    0.0199523712
C        1.0219974969   -0.4347471006    0.6261954068
C        3.3247183991   -1.1101190668    0.7908891434
C        0.8636602580   -0.6925308124    1.9899913867
C        3.1810830403   -1.3601694781    2.1689241504
C        1.9233165751   -1.1429123233    2.7908414990
C        4.3735531565   -1.8161529349    2.9510942869
C        1.6661572857   -1.3813152623    4.2601310030
C        5.5615902104   -2.4200873588    2.2105397245
O        4.4367328068   -1.6857140210    4.1698586866
H        2.4025273821   -0.4390248004   -1.0390551920
H        0.1776717564   -0.0792179239    0.0408161619
H        4.2869191334   -1.2662164031    0.3141730744
H       -0.1093034921   -0.5372446160    2.4501104635
H        2.0341744717   -2.3571610050    4.5864266634
H        2.1862177585   -0.6421756659    4.8750300642
H        0.5937413948   -1.3208756213    4.4667614904
H        5.2829474203   -2.9479055071    1.2960726329
H        6.0618825765   -3.1153567473    2.8871286479
H        6.2707437399   -1.6264629656    1.9485783652
20   
torsion grid (45,)
C        2.2600018131   -0.6367716255    0.0168870362
C        1.0175516764   -0.4584569786    0.6297125695
C        3.3340153980   -1.0901759387    0.7809548624
C        0.8717250456   -0.7199184703    1.9944088072
C        3.2022336246   -1.3427210089    2.1593323483
C        1.9451344697   -1.1472575962    2.7890436145
C        4.4063067047   -1.7693358648    2.9404756341
C        1.7051028762   -1.3878646421    4.2610966772
C        5.5649890487   -2.4578889983    2.2262964629
O        4.4983043722   -1.5600773937    4.1461792577
H        2.3895074751   -0.4318462206   -1.0423002005
H        0.1631460936   -0.1198188139    0.0489897847
H        4.2972919814   -1.2247031235    0.2995071117
H       -0.1016580253   -0.5846303597    2.4599690271
H        2.1115410373   -2.3473835502    4.5906820559
H        2.1991440531   -0.6252313913    4.8685262145
H        0.6324077915   -1.3682581239    4.4738870858
H        5.3233739032   -2.8282119478    1.2292599888
H        5.8798324752   -3.3019884884    2.8449593540
H        6.4087135876   -1.7633750522    2.1554698569
20   
torsion grid (60,)
C        2.0818251454   -0.8537042904   -0.0623604670
C        0.9246880375   -0.4325436888    0.5966560563
C        3.1372348770   -1.3737979380    0.6853214857
C        0.8335608180   -0.5521320595    1.9857591927
C        3.0507283609   -1.5123552047    2.0831940696
C        1.8694195285   -1.1013210936    2.7546999637
C        4.1895625029   -2.1357107778    2.8296551409
C        1.6803215135   -1.2129752178    4.2495589439
C        5.6061687042   -2.0450367180    2.2719028599
O        4.0146882602   -2.7238533322    3.8923527024
H        2.1643658598   -0.7729254895   -1.1427726247
H        0.0959351799   -0.0100688070    0.0339871358
H        4.0315972144   -1.7027543038    0.1661719235
H       -0.0689795252   -0.2146179022    2.4897803269
H        1.5540063958   -2.2558271442    4.5514935758
H        2.5472125665   -0.8406248009    4.8012322401
H        0.7970675186   -0.6468173207    4.5588188137
H        5.7107837229   -1.4526598586    1.3633770188
H        5.9884464929   -3.0564973925    2.1031900844
H        6.2314368564   -1.5999659986    3.0519452799
20   
torsion grid (75,)
C        2.1052529053   -0.8752390617   -0.0525302974
C        0.9333571032   -0.4721442733    0.5919761592
C        3.1630781495   -1.3675599435    0.7099826768
C        0.8322770773   -0.5798000149    1.9813010369
C        3.0669479339   -1.4943162859    2.1085096218
C        1.8725513626   -1.0989207007    2.7654282250
C        4.2139976182   -2.0871172886    2.8659478511
C        1.6725907895   -1.1975977421    4.2595461599
C        5.6136289392   -2.0513922079    2.2613714204
O        4.0553042337   -2.6299583561    3.9550976381
H        2.1964219549   -0.8017673808   -1.1327870862
H        0.1012296776   -0.0723777528    0.0177747767
H        4.0701497842   -1.6812175291    0.2034441024
H       -0.0815227608   -0.2558527383    2.4737966596
H        1.5679420556   -2.2396978355    4.5728191540
H        2.5258499999   -0.7994696483    4.8141406566
H        0.7733372861   -0.6489833612    4.5540370224
H        5.7514928461   -1.3107655949    1.4730582609
H        5.8595993034   -3.0462754022    1.8732973538
H        6.3166610009   -1.8500131155    3.0734699612
20   
torsion grid (90,)
C        2.0858187510   -0.8604633308   -0.0575708637
C        0.9034096566   -0.4710466318    0.5761401206
C        3.1409645083   -1.3422549386    0.7146765675
C        0.7906247429   -0.5784321080    1.9643632716
C        3.0346282725   -1.4682084367    2.1129644091
C        1.8305378484   -1.0824605805    2.7591362467
C        4.1876357593   -2.0390095360    2.8785913213
C        1.6167333764   -1.1759513920    4.2514988863
C        5.5644477497   -2.0772715613    2.2253099854
O        4.0496121948   -2.5087632041    4.0040904781
H        2.1863459536   -0.7852331839   -1.1368800311
H        0.0717579011   -0.0818730946   -0.0059732688
H        4.0566212785   -1.6435615980    0.2165834714
H       -0.1316624217   -0.2653229800    2.4479256084
H        1.5526761016   -2.2181463389    4.5750676855
H        2.4464978171   -0.7374721003    4.8112343536
H        0.6918634373   -0.6623911148    4.5295812219
H        5.7595526881   -1.2364421259    1.5567811061
H        5.6703066605   -3.0094335230    1.6576524870
H        6.3112671535   -2.0966955743    3.0212504417
20   
torsion grid (105,)
C        2.0823099690   -0.8483360845   -0.0497164025
C        0.8866225039   -0.4795564056    0.5710090111
C        3.1343616776   -1.3180728995    0.7335486431
C        0.7610988953   -0.5912841030    1.9575441960
C        3.0182033193   -1.4452482537    2.1315514827
C        1.8011044210   -1.0753583556    2.7648339994
C        4.1788983525   -1.9837421862    2.9096560968
C        1.5688801508   -1.1663041992    4.2544124037
C        5.5268308751   -2.1300007340    2.2135977973
O        4.0723105441   -2.3284001820    4.0830971292
H        2.1945944779   -0.7681886636   -1.1275095864
H        0.0546862560   -0.1039761638   -0.0195753401
H        4.0595591227   -1.6016595066    0.2436898225
H       -0.1722266652   -0.2961464432    2.4309715146
H        1.5827265486   -2.2047155183    4.5951381389
H        2.3528445131   -0.6556965389    4.8192151079
H        0.6020467927   -0.7225134481    4.5089592744
H        5.8039259142   -1.2405399399    1.6411312648
H        5.5066619160   -2.9828781084    1.5253511394
H        6.2813051968   -2.3260405595    2.9766252321
20   
torsion grid (120,)
C        2.1131802485   -0.8209758055   -0.0465845695
C        0.8980205134   -0.4985601584    0.5617594834
C        3.1684862182   -1.2694381815    0.7444596751
C        0.7592736925   -0.6295494993    1.9451554437
C        3.0435380076   -1.4064787677    2.1412000142
C        1.8073286125   -1.0788544746    2.7624085723
C        4.2192400129   -1.8939576377    2.9312204981
C        1.5570717337   -1.1861814304    4.2478145663
C        5.5113498116   -2.2281504020    2.1957318919
O        4.1745138084   -2.0324811597    4.1504877535
H        2.2370505472   -0.7245029854   -1.1217612972
H        0.0608060579   -0.1465817227   -0.0358966374
H        4.1073590129   -1.5170294953    0.2618691420
H       -0.1909835047   -0.3760475566    2.4088258878
H        1.7111723906   -2.2063983293    4.6081087379
H        2.2494137559   -0.5612792432    4.8175420553
H        0.5320068174   -0.8798175584    4.4757077563
H        5.9070867764   -1.3547395391    1.6669661148
H        5.3560897025   -3.0204575049    1.4559809982
H        6.2434395573   -2.5634492997    2.9310544128
20   
torsion grid (135,)
C        2.1058172420   -0.7779903110   -0.0415309959
C        0.8777418565   -0.5080151432    0.5666717848
C        3.1741583644   -1.1980899544    0.7478650166
C        0.7400066570   -0.6561664878    1.9485950854
C        3.0520625498   -1.3420353665    2.1436958690
C        1.8052153594   -1.0630945673    2.7656089694
C        4.2484382024   -1.7704667203    2.9363401071
C        1.5613848208   -1.1882032086    4.2508888660
C        5.4739221856   -2.2910024849    2.1955148725
O        4.2781773229   -1.6955198782    4.1613549410
H        2.2286463086   -0.6660455610   -1.1153285325
H        0.0285298733   -0.1856386322   -0.0307209189
H        4.1239635887   -1.4061373499    0.2672400973
H       -0.2220218936   -0.4486817948    2.4109601139
H        1.8585392651   -2.1692774233    4.6297353609
H        2.1514942600   -0.4593994876    4.8122868098
H        0.5013452384   -1.0298878425    4.4694178208
H        6.0018405314   -1.4601783246    1.7127930814
H        5.2175613201   -3.0139872140    1.4161445032
H        6.1446953717   -2.7492470637    2.9231055095
20   
torsion grid (150,)
C        2.0535246233   -0.7520627489   -0.0362822654
C        0.8206650859   -0.5160008406    0.5766408865
C        3.1327723057   -1.1571824147    0.7465983944
C        0.6894235763   -0.6768902813    1.9579937749
C        3.0164518571   -1.3096805290    2.1414249413
C        1.7676535387   -1.0598143549    2.7691997756
C        4.2265681433   -1.7013457630    2.9317715387
C        1.5385067621   -1.1955625211    4.2560661171
C        5.4110081715   -2.3329628285    2.2100502857
O        4.3064071116   -1.4952417087    4.1390784464
H        2.1712584203   -0.6273800976   -1.1092468542
H       -0.0374700287   -0.2106451110   -0.0169225369
H        4.0876563464   -1.3382584201    0.2641275554
H       -0.2765839915   -0.4974074955    2.4239166349
H        1.9137840157   -2.1467125928    4.6418333160
H        2.0693839537   -0.4160912751    4.8086399834
H        0.4700999076   -1.1209652496    4.4781790334
H        6.0764310527   -1.5365478346    1.8547623615
H        5.1271269191   -2.9367470654    1.3456774296
H        5.9685141192   -2.9364992317    2.9279127980
20   
torsion grid (165,)
C        2.0704328614   -0.7514050436   -0.0313745263
C        0.8373610338   -0.5357588384    0.5884162552
C        3.1593863051   -1.1456750252    0.7442190589
C        0.7155426979   -0.7025254058    1.9701784379
C        3.0517434207   -1.3020088599    2.1388740964
C        1.8041072344   -1.0693528842    2.7744721678
C        4.2711672824   -1.6665303192    2.9275914222
C        1.5891441493   -1.2089873912    4.2633557507
C        5.4263657351   -2.3866030649    2.2403541694
O        4.3802986600   -1.3757402661    4.1148455648
H        2.1812708875   -0.6204486173   -1.1043192038
H       -0.0282700105   -0.2417386773    0.0000577341
H        4.1151784271   -1.3093687102    0.2569032247
H       -0.2508100760   -0.5396438582    2.4415192484
H        2.0154114959   -2.1363744602    4.6537546214
H        2.0796438126   -0.3977571538    4.8076541495
H        0.5194286764   -1.1896944667    4.4907603431
H        6.2386368507   -1.6683444392    2.0795595624
H        5.1732511508   -2.8381505740    1.2805541416
H        5.8024055274   -3.1515080288    2.9233901124
20   
torsion grid (180,)
C        2.0409972349   -1.0378308136   -0.0380866296
C        0.8986515755   -0.5845304282    0.6252868557
C        3.1239334795   -1.4958865973    0.7108700671
C        0.8496657052   -0.6110776515    2.0213614018
C        3.0801187041   -1.5407532088    2.1168750851
C        1.9138801776   -1.0970209886    2.7941095126
C        4.2467368614   -2.1007076549    2.8711925574
C        1.7693629189   -1.1090628718    4.2980940987
C        5.6495787429   -2.0181187600    2.2787152084
O        4.1060929347   -2.6228729425    3.9727370844
H        2.0910719140   -1.0295225291   -1.1234646691
H        0.0488822287   -0.2092147471    0.0605421822
H        4.0059708918   -1.8507072121    0.1878302761
H       -0.0416283763   -0.2491470871    2.5284432387
H        1.6598924225   -2.1300070579    4.6727455265
H        2.6489008436   -0.6954456534    4.7978671161
H        0.8910445733   -0.5286275717    4.5946885066
H        6.2681799106   -1.4520998222    2.9819044713
H        5.7123488505   -1.5445819435    1.2993796460
H        6.0695947493   -3.0268689664    2.2224647823
