29   
torsion grid (-165,)
C        1.1361114580   -1.1504116268    0.2217187559
C        1.4046506967   -2.3022679660    0.9707516761
C        1.0922804962    0.0938176397    0.8588822242
C        1.6069860087   -2.2169195869    2.3488258468
C        1.3082708049    0.1920361034    2.2355462394
C        1.9158635708   -0.1585676338    6.4653415603
C        2.8570083679   -1.1729890452    6.1893170000
C        1.5461872028   -0.9685752765    2.9772534657
C        1.2015947185    0.0118984598    5.2870485224
C       -0.0428085784    0.8342778067    5.2069174230
C       -2.1476403283    1.4440908949    4.1951530126
C       -1.3511116331   -0.8604945515    3.9023802325
N        2.7562182190   -1.6076287841    4.9327247556
N        1.7321348784   -0.8968847081    4.3879085642
N       -1.0297222758    0.5096294663    4.3020896171
O       -0.1681580007    1.7764324817    5.9949494103
H        0.9726124370   -1.2213900781   -0.8501297173
H        1.4510648903   -3.2716662880    0.4819509037
H        0.9048032318    0.9958420142    0.2827067255
H        1.8144775723   -3.0997679683    2.9441586629
H        1.2964840417    1.1586375449    2.7268776696
H        1.7268080457    0.3659733834    7.3908027650
H        3.6054674507   -1.6040272861    6.8427653863
H       -2.6137745349    1.3170870069    3.2133904081
H       -1.7847550557    2.4660218202    4.2993328642
H       -2.9013500985    1.2661498825    4.9738574639
H       -2.3467444386   -1.1201061652    4.2840148292
H       -0.6421351909   -1.5700261376    4.3221059895
H       -1.3529690280   -0.9660364183    2.8127603669
29   
torsion grid (-150,)
C        1.1114647493   -1.0979466507    0.2105161882
C        1.4032182696   -2.2518450381    0.9475384324
C        1.0537731529    0.1403476699    0.8581395010
C        1.6140449295   -2.1760326843    2.3249474199
C        1.2790032779    0.2296356808    2.2338566882
C        1.8360939989   -0.2044161393    6.4800342654
C        2.7836603418   -1.2150325871    6.2037570682
C        1.5395393920   -0.9338209778    2.9646015941
C        1.1649129885    0.0005662384    5.2839325148
C       -0.0354678240    0.8745842837    5.1241364636
C       -2.1659001564    1.3859882836    4.0946598108
C       -1.3614362846   -0.9411803797    4.0052184705
N        2.7281092832   -1.6076109068    4.9306563030
N        1.7287167644   -0.8712504013    4.3734646705
N       -1.0671063291    0.4532033977    4.3221806408
O       -0.0809563034    1.9386474863    5.7490506679
H        0.9413160112   -1.1623478902   -0.8607005434
H        1.4605484002   -3.2161585620    0.4499011689
H        0.8497490434    1.0445525258    0.2910801729
H        1.8384054300   -3.0605930712    2.9114039755
H        1.2633924995    1.1935134901    2.7308616039
H        1.6279954779    0.2999746539    7.4128880993
H        3.5082706911   -1.6683496666    6.8688944576
H       -2.5928483536    1.1928055826    3.1054870863
H       -1.7926495554    2.4082048723    4.1421517217
H       -2.9544646570    1.2709908655    4.8502062319
H       -2.3601269914   -1.1918945724    4.3835739616
H       -0.6476984765   -1.6102725192    4.4813812307
H       -1.3415921747   -1.1151358804    2.9240090679
29   
torsion grid (-135,)
C        1.0740632163   -1.0396240380    0.2296141029
C        1.3842116493   -2.1912023715    0.9626979553
C        1.0186700076    0.1994690238    0.8759243220
C        1.6155437356   -2.1124404789    2.3366879548
C        1.2652245465    0.2920003679    2.2477541795
C        1.8049716951   -0.1836630443    6.5035022003
C        2.7430013899   -1.2068163904    6.2316591318
C        1.5441245574   -0.8696120313    2.9761893784
C        1.1735027615    0.0527941662    5.2934870117
C        0.0269390580    0.9823930747    5.0549233703
C       -2.1340702164    1.4196087344    4.0301975677
C       -1.3586189360   -0.9190897981    4.1765042598
N        2.7181238434   -1.5730241733    4.9500404811
N        1.7509636417   -0.8029420220    4.3808980996
N       -1.0696561798    0.4930904404    4.3953360129
O        0.0913661805    2.1411828693    5.4759526182
H        0.8881296850   -1.1063614577   -0.8388077774
H        1.4397695650   -3.1557151918    0.4651724224
H        0.8014637186    1.1018500943    0.3108420188
H        1.8539655748   -2.9946300523    2.9209483298
H        1.2577487220    1.2581032253    2.7412212165
H        1.5887534680    0.3104551988    7.4402546353
H        3.4411796279   -1.6847842575    6.9077287968
H       -2.4682858133    1.2016295156    3.0097522627
H       -1.7573026389    2.4396914481    4.0867206758
H       -2.9912745429    1.3240909886    4.7091634541
H       -2.3688035723   -1.1383058980    4.5416886616
H       -0.6597819328   -1.5494679683    4.7237113237
H       -1.3079935112   -1.1756559493    3.1121509637
29   
torsion grid (-120,)
C        1.0864216145   -1.0448784383    0.2063412389
C        1.4095133277   -2.2089864989    0.9135060017
C        1.0439334390    0.1815057338    0.8771444336
C        1.6662221712   -2.1548802878    2.2842096472
C        1.3160733790    0.2511455522    2.2457452150
C        1.8377413618   -0.3720152643    6.5004259336
C        2.7688630528   -1.3968968833    6.2034718555
C        1.6081910450   -0.9238594526    2.9481732639
C        1.2447132756   -0.0707516211    5.2871191834
C        0.1549722113    0.9173348006    5.0037250084
C       -2.0361377077    1.3508216347    4.0289713026
C       -1.3147097320   -0.9937969254    4.3206037561
N        2.7733806524   -1.7024457144    4.9065581416
N        1.8384096888   -0.8837429807    4.3497889623
N       -1.0103102022    0.4217792533    4.4849900547
O        0.3357995723    2.1149178031    5.2399942955
H        0.8809113214   -1.0920979186   -0.8595556717
H        1.4554125191   -3.1646670572    0.3982275188
H        0.8172925468    1.0942302734    0.3327672692
H        1.9148874814   -3.0473809246    2.8479774633
H        1.3221785300    1.2098270482    2.7535744801
H        1.6110815239    0.0831812774    7.4544461187
H        3.4421074928   -1.9159635632    6.8745390210
H       -2.2705005910    1.1560455499    2.9752234567
H       -1.6679879928    2.3692104643    4.1419761161
H       -2.9529447520    1.2331104562    4.6192613711
H       -2.3235729776   -1.1904565287    4.7003959739
H       -0.6149006731   -1.6091466433    4.8839160957
H       -1.2747524476   -1.2880158601    3.2648266373
29   
torsion grid (-105,)
C        1.1304276423   -1.0540967598    0.1654320539
C        1.4778220036   -2.2073268652    0.8789023485
C        1.0573103892    0.1737138022    0.8304435462
C        1.7299220281   -2.1414569545    2.2498766497
C        1.3239885341    0.2565463855    2.1997166881
C        1.7564981453   -0.4393273456    6.4778907670
C        2.7255941789   -1.4306860960    6.1835072462
C        1.6422666653   -0.9085548586    2.9079917096
C        1.2135682643   -0.1039027932    5.2510662632
C        0.1515226263    0.9037027070    4.9194426432
C       -2.0886262829    1.3099616431    4.0503235268
C       -1.3617700822   -1.0228502673    4.4395041134
N        2.7936650158   -1.6856231706    4.8782750722
N        1.8712839885   -0.8589283118    4.3103331411
N       -1.0628129517    0.4002063952    4.5452478126
O        0.4045307450    2.1100882605    4.9669881418
H        0.9295360610   -1.1109484750   -0.9008943797
H        1.5468791429   -3.1640725131    0.3681355019
H        0.8117087418    1.0787399247    0.2813821718
H        1.9984411317   -3.0251792288    2.8181918766
H        1.3080485602    1.2176108458    2.7020841889
H        1.4832252400   -0.0244842700    7.4382468032
H        3.3817345113   -1.9590530594    6.8642704337
H       -2.2946830459    1.1057040064    2.9919533132
H       -1.7357091223    2.3340174635    4.1603157068
H       -3.0160061570    1.1802175759    4.6196403410
H       -2.3677936163   -1.2095018710    4.8297328699
H       -0.6544962235   -1.6096832962    5.0241239972
H       -1.3227667175   -1.3580053387    3.3953815205
29   
torsion grid (-90,)
C        1.2992626534   -1.1164057863    0.0645547194
C        1.6301335772   -2.2496339334    0.8167492064
C        1.1950432102    0.1258227579    0.6973169951
C        1.8371447133   -2.1480223763    2.1930576437
C        1.4153159068    0.2452682048    2.0725051114
C        1.6774806559   -0.4451648912    6.3923686682
C        2.6903722860   -1.4017445545    6.1315314262
C        1.7201524039   -0.8999675976    2.8178960262
C        1.1899176701   -0.1014393777    5.1446043356
C        0.1405805041    0.9081078117    4.7721965152
C       -2.1789505175    1.3311685598    4.1618859123
C       -1.4709139718   -0.9906879487    4.6378387383
N        2.8281063046   -1.6335761509    4.8281931198
N        1.9169170491   -0.8176671936    4.2259889428
N       -1.1271188861    0.4261055555    4.6103789995
O        0.4462167638    2.0917553506    4.6070054274
H        1.1345836069   -1.2002279278   -1.0062621514
H        1.7226637131   -3.2179639740    0.3321121844
H        0.9604992901    1.0153238840    0.1187907498
H        2.0955932936   -3.0153783364    2.7904505206
H        1.3732392982    1.2164859845    2.5521428710
H        1.3476467946   -0.0532327343    7.3447444527
H        3.3287020413   -1.9210130215    6.8358808361
H       -2.4689657154    1.0981343961    3.1293710106
H       -1.8098181817    2.3543006782    4.2082524536
H       -3.0594105763    1.2266426010    4.8053437691
H       -2.3888531492   -1.1344867597    5.2180034654
H       -0.6751454511   -1.5703915306    5.1026475736
H       -1.6368994006   -1.3691646275    3.6211303585
29   
torsion grid (-75,)
C        1.6086812560   -1.1324423499   -0.0913545957
C        1.8482327525   -2.2708385609    0.6872005356
C        1.4815020020    0.1137287901    0.5289292370
C        1.9438988829   -2.1681663388    2.0755465324
C        1.5895396842    0.2336601300    1.9177141661
C        1.5297462578   -0.5102700137    6.2637203115
C        2.5815122995   -1.4332881198    6.0496449917
C        1.8055827456   -0.9153625564    2.6866955738
C        1.1108959889   -0.1518181318    4.9932803270
C        0.0592285067    0.8472493765    4.6035502753
C       -2.3082926124    1.3836249532    4.4203903166
C       -1.6571483680   -0.9328770692    4.9806269243
N        2.7984441537   -1.6407855837    4.7526800813
N        1.9070767745   -0.8366561844    4.1082100822
N       -1.2392175290    0.4420997342    4.7342978329
O        0.3782589715    1.9764870790    4.2209986979
H        1.5310289244   -1.2161466327   -1.1720773860
H        1.9571419240   -3.2428827425    0.2135052102
H        1.3143778369    1.0061013552   -0.0683024954
H        2.1344381282   -3.0391602433    2.6929466015
H        1.5192888681    1.2034512306    2.3958570664
H        1.1310543467   -0.1456425753    7.2007348438
H        3.1926072769   -1.9468133871    6.7817650446
H       -2.7701047186    1.1373695030    3.4557281495
H       -1.8945517313    2.3892888543    4.3688912203
H       -3.0777623484    1.3375924503    5.1986574174
H       -2.3023647643   -0.9812896331    5.8657364414
H       -0.7937740612   -1.5744492009    5.1447465794
H       -2.2206525407   -1.3137627479    4.1197428473
29   
torsion grid (-60,)
C        1.8326077119   -1.1643639485   -0.2053570566
C        2.0018121160   -2.3023986785    0.5918770150
C        1.6887464211    0.0885653389    0.3974270776
C        2.0147283620   -2.1912379601    1.9827714645
C        1.7123815976    0.2159098802    1.7895964698
C        1.4077246174   -0.5966667580    6.1484151192
C        2.5168340991   -1.4527576070    5.9633074318
C        1.8621310014   -0.9311868808    2.5755049249
C        1.0225183188   -0.2308856411    4.8669858522
C       -0.0455616779    0.7431756607    4.4728872993
C       -2.3854650418    1.3975195665    4.6003799640
C       -1.7702173139   -0.8990986507    5.2591879940
N        2.7980894333   -1.6185263365    4.6718852383
N        1.8956237675   -0.8500848683    4.0033174400
N       -1.3242548157    0.4266120401    4.8456355502
O        0.2399788281    1.8000672856    3.9018826437
H        1.8200042104   -1.2541134640   -1.2883767646
H        2.1212067004   -3.2794346571    0.1311666196
H        1.5715312190    0.9788489372   -0.2146316874
H        2.1532479245   -3.0612695693    2.6155084204
H        1.6131765579    1.1851395867    2.2623827064
H        0.9530748315   -0.2708304335    7.0743336827
H        3.1252666950   -1.9478911839    6.7100798796
H       -2.9819605554    1.1102091081    3.7248985029
H       -1.9423456905    2.3751647872    4.4190370874
H       -3.0455540985    1.4442366726    5.4733133583
H       -2.2155033314   -0.8617847476    6.2607157354
H       -0.9384541172   -1.5999668264    5.2737110257
H       -2.5290174290   -1.2690316001    4.5583309174
29   
torsion grid (-45,)
C        1.8686944303   -1.1954920265   -0.2170615431
C        3.0348284988   -1.3814202774    0.5334685689
C        0.6433980004   -1.0362637685    0.4377691849
C        2.9845225505   -1.3961298374    1.9281590664
C        0.5801140505   -1.0630246761    1.8318679820
C        1.2098340117   -0.9734197708    6.1277073412
C        2.2171879282   -1.9493868392    5.9537706348
C        1.7542857066   -1.2302802741    2.5715690987
C        0.9058709494   -0.5408582983    4.8435330417
C        0.1120839272    0.6510358839    4.4087083704
C       -1.9250694838    1.9694114441    4.6125872534
C       -1.9220233314   -0.3328682156    5.5064232367
N        2.5108747930   -2.1267559585    4.6655565569
N        1.7121585570   -1.2573762617    3.9944493454
N       -1.1725746441    0.7487392487    4.8797964646
O        0.6328952009    1.5145932579    3.7006860944
H        1.9139510499   -1.1783558047   -1.3026041489
H        3.9907100070   -1.5077753510    0.0322690915
H       -0.2692338365   -0.9013718010   -0.1363411767
H        3.8796048420   -1.5357313760    2.5241177505
H       -0.3756710027   -0.9627712041    2.3362095583
H        0.7885397865   -0.6002537635    7.0513429573
H        2.7346334254   -2.5333802634    6.7047830655
H       -2.6710874666    1.8052244420    3.8240736295
H       -1.2376300266    2.7492514609    4.2890268296
H       -2.4447135527    2.2865503766    5.5235603759
H       -2.1443150049   -0.1034441770    6.5563484258
H       -1.3633627775   -1.2658795571    5.4637743127
H       -2.8737156631   -0.4721454491    4.9790388094
29   
torsion grid (-30,)
C        1.9939568861   -1.2562596128   -0.2374660570
C        3.1435368998   -1.3134228282    0.5577932822
C        0.7336987024   -1.2139109275    0.3678668865
C        3.0398383434   -1.3164575359    1.9499163768
C        0.6203204179   -1.2287458552    1.7586420511
C        1.0808170344   -1.0518563011    6.0787912765
C        2.1270430749   -1.9879923042    5.9382040679
C        1.7755980598   -1.2675881059    2.5432001541
C        0.8075591612   -0.6158371046    4.7854602334
C        0.0318693846    0.5782838766    4.3326275763
C       -1.8620749212    2.0666492794    4.6593232752
C       -1.9420846647   -0.1682395705    5.7020524400
N        2.4780489454   -2.1391124648    4.6599013043
N        1.6818339433   -1.2894426128    3.9657104093
N       -1.1703812052    0.8162072096    4.9530116413
O        0.4936796390    1.3300987675    3.4714720941
H        2.0792096845   -1.2481001174   -1.3207539901
H        4.1258222437   -1.3483297759    0.0943332167
H       -0.1647018944   -1.1787830143   -0.2423630469
H        3.9208608351   -1.3576224606    2.5810861080
H       -0.3576987021   -1.2143445435    2.2289943844
H        0.6215262623   -0.6980306490    6.9913802202
H        2.6348945964   -2.5615038074    6.7036530320
H       -2.6685784240    1.9103656965    3.9305914293
H       -1.1525222502    2.7814910363    4.2459470212
H       -2.2971841183    2.4661958564    5.5817874871
H       -2.0240972052    0.1101930669    6.7605064207
H       -1.4863549554   -1.1540556916    5.6326148621
H       -2.9556194522   -0.2273206731    5.2867713457
29   
torsion grid (-15,)
C        2.2497818421   -1.5021099588   -0.1300756247
C        3.3538927449   -1.4117063160    0.7238062758
C        0.9597618833   -1.5656989117    0.4079202699
C        3.1738654188   -1.3739607162    2.1080871869
C        0.7718966278   -1.5389456668    1.7900305211
C        0.9883631716   -1.1937397530    6.1254957446
C        2.0733236696   -2.0891552849    6.0508874107
C        1.8807026364   -1.4309416855    2.6321810715
C        0.7604811185   -0.7808679098    4.8125883984
C        0.0067297376    0.4053016422    4.3073621068
C       -1.7424157577    2.0536977826    4.6328305590
C       -1.8978286429   -0.0666957722    5.8847181914
N        2.4997419021   -2.2332216235    4.7940410101
N        1.7132895965   -1.4207118003    4.0503982857
N       -1.1077017078    0.7955464700    5.0129050356
O        0.3959768071    1.0184580068    3.3103800106
H        2.3931279734   -1.5260725302   -1.2070385705
H        4.3587143503   -1.3640420113    0.3127870397
H        0.0975116935   -1.6446856858   -0.2486223210
H        4.0188965225   -1.3027297885    2.7845116569
H       -0.2262073488   -1.6002052349    2.2116415495
H        0.4809069815   -0.8475652168    7.0141261079
H        2.5612497457   -2.6365248280    6.8477604008
H       -2.5625692577    1.8883535269    3.9211792244
H       -1.0057532649    2.7046171131    4.1646420457
H       -2.1461659170    2.5362447444    5.5288373078
H       -1.8397428421    0.2541636432    6.9328303183
H       -1.5689260050   -1.1019318455    5.8127349530
H       -2.9486758385   -0.0234206852    5.5749086830
29   
torsion grid (0,)
C        2.6313424865   -1.0488099978   -0.1182068597
C        2.7840828486   -0.0660950398    0.8667135798
C        2.0052748290   -2.2582672864    0.1988194293
C        2.3136561210   -0.2878305883    2.1608205941
C        1.5250458320   -2.4843976457    1.4910823194
C        0.4301696227   -1.6703882439    5.8522688372
C        1.1478212952   -2.8579506193    5.6236639657
C        1.6762851369   -1.4930019468    2.4616479882
C        0.5018804132   -0.9512797707    4.6548442205
C       -0.3477063260    0.1682939967    4.1472949814
C       -1.9962095150    1.8955284667    4.5431981521
C       -0.6393402573    1.1291192784    6.4568768783
N        1.6298749179   -2.9022433893    4.3792917890
N        1.2167676817   -1.7581941030    3.7907133213
N       -1.0385017480    0.9251274197    5.0676124628
O       -0.4298268233    0.3979883832    2.9376923205
H        3.0008064892   -0.8732688542   -1.1250714932
H        3.2760254502    0.8731361440    0.6287244546
H        1.8856712296   -3.0265619743   -0.5603369340
H        2.4322885372    0.4678914516    2.9304476236
H        1.0382841332   -3.4174611230    1.7550420171
H       -0.1148037328   -1.4076090546    6.7455097391
H        1.3380755700   -3.6801784684    6.3022102376
H       -2.8055333315    2.0221650559    5.2688994705
H       -2.4032460030    1.5333990921    3.6004186977
H       -1.5240261185    2.8709021968    4.3634615243
H        0.3791751780    0.7831677281    6.6283990449
H       -1.3150220286    0.6227763876    7.1582008611
H       -0.6659092719    2.2018002058    6.6771624394
29   
torsion grid (15,)
C        2.6719921314   -0.9931480409   -0.0565172710
C        2.6496041929    0.0135285683    0.9149593810
C        2.1909905877   -2.2689358416    0.2554157313
C        2.1500970013   -0.2505003448    2.1905150400
C        1.6798464956   -2.5387926797    1.5266349346
C        0.2816065556   -1.7670225805    5.8168014430
C        1.0449611526   -2.9333037025    5.6143193747
C        1.6567107657   -1.5233791361    2.4851101574
C        0.3790612670   -1.0498210919    4.6238975392
C       -0.4803544777    0.0571704700    4.1083595594
C       -1.9744636272    1.9133624868    4.5561874855
C       -0.4264124576    1.2113397002    6.3454092885
N        1.5838042607   -2.9559039943    4.3932420943
N        1.1583427741   -1.8218545770    3.7898429293
N       -0.9920343363    0.9425762510    5.0280594607
O       -0.7360492720    0.1454218808    2.9048352473
H        3.0645400045   -0.7850853466   -1.0482760123
H        3.0293745579    1.0048454537    0.6829486743
H        2.2071760087   -3.0561198204   -0.4935588320
H        2.1424588834    0.5243209731    2.9502929664
H        1.3017617418   -3.5222086274    1.7847757979
H       -0.3092267762   -1.5107624433    6.6841998477
H        1.2303219119   -3.7534149219    6.2967517113
H       -2.6938258041    2.1122773846    5.3570852212
H       -2.4932271384    1.5117749874    3.6871009726
H       -1.4958299557    2.8592022303    4.2685826082
H        0.5350426061    0.7153318192    6.4663260230
H       -1.0991802192    0.8864663190    7.1495987905
H       -0.2659258727    2.2905867559    6.4532303422
29   
torsion grid (30,)
C        2.6984331416   -0.8477549123    0.0404229123
C        2.5436102494    0.1564618702    1.0017019308
C        2.3418948400   -2.1647609936    0.3496533979
C        2.0362538844   -0.1505717654    2.2649076181
C        1.8222849970   -2.4785949507    1.6067355170
C        0.1852781257   -1.8112277962    5.8303289047
C        1.0021976834   -2.9465514931    5.6445959775
C        1.6665049618   -1.4657806875    2.5568378342
C        0.3014004168   -1.0834638333    4.6494988505
C       -0.5526320729    0.0291167226    4.1342959091
C       -1.8691535593    2.0188885135    4.6001288470
C       -0.2020321892    1.3060300601    6.2734221756
N        1.5948823519   -2.9310221655    4.4493857497
N        1.1515588171   -1.8024293571    3.8430433785
N       -0.8953428246    1.0185632702    5.0234570915
O       -0.9594897479    0.0132212234    2.9705634436
H        3.0970588918   -0.6061862781   -0.9412001973
H        2.8267940320    1.1802464189    0.7727735897
H        2.4610846712   -2.9503750717   -0.3916376948
H        1.9329483194    0.6246592571    3.0174441827
H        1.5382262960   -3.4936664064    1.8621024560
H       -0.4447675712   -1.5749404030    6.6766089272
H        1.1910732252   -3.7679700254    6.3245501823
H       -2.5498076395    2.2373280610    5.4301645159
H       -2.4329275356    1.6350958758    3.7514987095
H       -1.3725784778    2.9511618491    4.2997738522
H        0.6876254894    0.6876842200    6.3756654011
H       -0.8537171254    1.1347593361    7.1397618808
H        0.1069170905    2.3585019475    6.2835168709
29   
torsion grid (45,)
C        2.7376404431   -0.7681909997    0.1538396277
C        2.4433521413    0.2191604081    1.0993551361
C        2.5237537313   -2.1145473009    0.4691506169
C        1.9396138098   -0.1329888958    2.3526062964
C        2.0075762208   -2.4758169790    1.7145002122
C        0.1617838784   -1.9520987232    5.8722546805
C        1.0493503638   -3.0385145919    5.7004678851
C        1.7120670274   -1.4795729463    2.6499973428
C        0.2767981729   -1.2081996980    4.7051362030
C       -0.5889522760   -0.0975407210    4.1991371751
C       -1.7166796063    2.0135845563    4.6441582340
C        0.0589430866    1.2832366410    6.1966415780
N        1.6789486253   -2.9756005629    4.5270128349
N        1.1959831006   -1.8599721481    3.9214266863
N       -0.7573055196    0.9839209444    5.0268314687
O       -1.1541744204   -0.2030683568    3.1093478465
H        3.1336168039   -0.4910835226   -0.8193749076
H        2.6155231561    1.2666215814    0.8672090217
H        2.7516321658   -2.8877566867   -0.2596243428
H        1.7341474575    0.6338119437    3.0927376035
H        1.8327795869   -3.5141972573    1.9734779829
H       -0.5023607372   -1.7523757281    6.7022427166
H        1.2612970648   -3.8568830949    6.3773774696
H       -2.3514910841    2.2634184385    5.5019037576
H       -2.3313521865    1.6417961602    3.8261173148
H       -1.2001073790    2.9247819669    4.3155827277
H        0.8812191390    0.5761144928    6.2862828485
H       -0.5394720996    1.2452440468    7.1158016805
H        0.4761674921    2.2935455248    6.1034496520
29   
torsion grid (60,)
C        2.6948983978   -0.7028149119    0.1210980388
C        1.3258151967   -0.4889318878    0.3049537213
C        3.4389044725   -1.3323742500    1.1257775006
C        0.6926284413   -0.8975578361    1.4826490584
C        2.8221325924   -1.7340158664    2.3113126638
C       -0.1290014517   -2.0685878610    5.6911913511
C        0.6308437332   -3.2266228469    5.4102936677
C        1.4511573652   -1.5071161034    2.4872543533
C        0.0332006309   -1.2568454404    4.5782616383
C       -0.6284143372    0.0574184457    4.2958174158
C       -1.0692775196    2.3386222595    5.0202444038
C        0.7599609582    1.0929059284    6.1096491672
N        1.2353240525   -3.1409066579    4.2264333541
N        0.8466650352   -1.9444747196    3.7077962372
N       -0.3547905078    1.0753742609    5.1695524437
O       -1.4220972336    0.1793742725    3.3577359552
H        3.1783593380   -0.3883500088   -0.8000619826
H        0.7377336928   -0.0142938249   -0.4759652066
H        4.5023945232   -1.5090957271    0.9884602933
H       -0.3698998279   -0.7451275582    1.6257908939
H        3.3818838229   -2.2307787124    3.0964268208
H       -0.7289660912   -1.8498079593    6.5643138678
H        0.7597196165   -4.1177630440    6.0121567302
H       -1.3816566765    2.6999204761    6.0061173864
H       -1.9425259405    2.1841063692    4.3889253406
H       -0.4260916269    3.0977621339    4.5567050106
H        1.3233500152    0.1638038221    6.0591848124
H        0.3970005028    1.2281243356    7.1356629020
H        1.4332815167    1.9254361815    5.8698537555
29   
torsion grid (75,)
C        2.6489324118   -0.5196946037    0.2894632195
C        1.2787403150   -0.3259637964    0.4863819185
C        3.3948606047   -1.2110407492    1.2513966137
C        0.6488923056   -0.8147261626    1.6349346865
C        2.7817443624   -1.6913711729    2.4092528773
C       -0.2569026508   -2.2017813964    5.7209588088
C        0.5822357591   -3.3106264554    5.4558712158
C        1.4098690938   -1.4831694309    2.6005369735
C       -0.0835061857   -1.3596969895    4.6353620614
C       -0.7724558614   -0.0572251815    4.3434942218
C       -0.9911907196    2.3149249233    4.8392288646
C        0.8899000797    1.0619095988    5.8401076964
N        1.2334226379   -3.1706385828    4.3032721218
N        0.8049131746   -1.9821678468    3.7929984766
N       -0.3288251144    1.0309242047    5.0403474622
O       -1.7060954996   -0.0077137225    3.5378072182
H        3.1309283078   -0.1439776911   -0.6091466246
H        0.6868300489    0.1925644093   -0.2631213111
H        4.4590068788   -1.3739702737    1.1025535497
H       -0.4183540839   -0.6901963245    1.7742943970
H        3.3442018345   -2.2333513866    3.1616455430
H       -0.9036363175   -2.0320899770    6.5711431132
H        0.7329229044   -4.2043590299    6.0488814813
H       -1.1627732825    2.7947600597    5.8088616613
H       -1.9418982835    2.1510816198    4.3346255201
H       -0.3703421974    2.9789601024    4.2243464260
H        1.3522907891    0.0775247455    5.8761568245
H        0.6653154535    1.3806780966    6.8648690509
H        1.6050030819    1.7711308056    5.4052185579
29   
torsion grid (90,)
C        2.5830192485   -0.2606020623    0.5446492856
C        1.2109017963   -0.0890987683    0.7500065028
C        3.3276180351   -1.0285534335    1.4476475124
C        0.5772442364   -0.6747779295    1.8497252294
C        2.7105415669   -1.6056554557    2.5582695393
C       -0.3901586328   -2.3366370864    5.7869213221
C        0.4994809855   -3.4034088137    5.5051049834
C        1.3370867662   -1.4190438516    2.7601310132
C       -0.2064913366   -1.4432223018    4.7471866161
C       -0.9112524991   -0.1459593695    4.4653328302
C       -0.8729833131    2.2847986645    4.5998375357
C        1.0418364405    1.0057514788    5.5044184608
N        1.1798946646   -3.1965257734    4.3800263388
N        0.7277702721   -1.9998667423    3.9088718798
N       -0.2920907118    0.9850652893    4.9158048878
O       -1.9747784767   -0.1378004993    3.8403791088
H        3.0673399569    0.1910798885   -0.3168438491
H        0.6203191232    0.4866275723    0.0424134878
H        4.3930137970   -1.1750489441    1.2907855330
H       -0.4937441091   -0.5735781843    1.9829841160
H        3.2713372204   -2.2046751444    3.2672330515
H       -1.0714376112   -2.2270253773    6.6195587236
H        0.6639501907   -4.3142205338    6.0677585265
H       -0.9126336795    2.9033202079    5.5030389181
H       -1.8789150680    2.1385043148    4.2100577206
H       -0.2659282134    2.8024212474    3.8460142289
H        1.3408674596    0.0056302231    5.8137535144
H        1.0446361013    1.6564750140    6.3855907891
H        1.7771933128    1.3879980817    4.7849902327
29   
torsion grid (105,)
C        2.5547421638   -0.1410379745    0.6981554619
C        1.1777969002   -0.0117101598    0.9032014243
C        3.3154036949   -0.9159418614    1.5818383236
C        0.5577923307   -0.6455831568    1.9835166279
C        2.7118703622   -1.5401958732    2.6741653621
C       -0.4669897945   -2.4547208630    5.8106045932
C        0.4761436159   -3.4776240533    5.5409218672
C        1.3337850318   -1.3944132337    2.8763516803
C       -0.2625599514   -1.5171614958    4.8148256715
C       -0.9730054185   -0.2187901181    4.5643234245
C       -0.8247641172    2.2108058036    4.4578062180
C        1.1133485200    0.9305849454    5.3108961314
N        1.2023340622   -3.2095732912    4.4573389603
N        0.7359190861   -2.0097763024    4.0101034311
N       -0.2644858245    0.9186475488    4.8339607125
O       -2.1227004609   -0.2166836671    4.1173368110
H        3.0298785081    0.3478828700   -0.1479238882
H        0.5742407797    0.5682566320    0.2102303193
H        4.3846098359   -1.0301621206    1.4244721147
H       -0.5167535314   -0.5770839762    2.1133674183
H        3.2863167141   -2.1423910965    3.3694520229
H       -1.1910376701   -2.3960692857    6.6114523606
H        0.6476688171   -4.4000494024    6.0820724549
H       -0.8354565532    2.8840274500    5.3223905059
H       -1.8422811305    2.0640157826    4.0994137227
H       -0.2199971181    2.6677922263    3.6641530409
H        1.3686043584   -0.0210901559    5.7752557850
H        1.2273411599    1.7199739256    6.0611561434
H        1.8145690188    1.1237834045    4.4892577508
29   
torsion grid (120,)
C        2.5287067637   -0.1276305598    0.7457679515
C        1.1489551950   -0.0249414232    0.9498680005
C        3.3042988682   -0.8824724167    1.6335522540
C        0.5431787203   -0.6648405640    2.0340044281
C        2.7137942234   -1.5121874693    2.7301846126
C       -0.5378601660   -2.5310302251    5.7913532611
C        0.4358039102   -3.5279553379    5.5394138683
C        1.3338668339   -1.3915494162    2.9319607938
C       -0.3044777388   -1.5586535325    4.8350309250
C       -1.0105169637   -0.2511428580    4.6457908804
C       -0.8431218827    2.1692633314    4.4153464014
C        1.1404880181    0.9151487802    5.1864444449
N        1.2064298926   -3.2158563282    4.4981143225
N        0.7459155448   -2.0083634410    4.0691263928
N       -0.2532190086    0.8828055176    4.7621068955
O       -2.2195768013   -0.2362046712    4.3993703762
H        2.9938369707    0.3661553330   -0.1030188200
H        0.5342037703    0.5388142665    0.2534170549
H        4.3754538824   -0.9766585927    1.4764573707
H       -0.5326784559   -0.6168021271    2.1650692786
H        3.3006732673   -2.0980302290    3.4291794210
H       -1.2980306458   -2.5036478483    6.5595468181
H        0.6012228776   -4.4616105218    6.0628040221
H       -0.8764187120    2.8272197405    5.2921653541
H       -1.8568426655    2.0082553708    4.0522338274
H       -0.2424749409    2.6541326550    3.6359810939
H        1.4315226204   -0.0333693264    5.6350845421
H        1.2685756313    1.7014590762    5.9388221912
H        1.8073569166    1.1270454091    4.3419129568
29   
torsion grid (135,)
C        0.8176858691   -1.6934173638    0.3730161842
C        0.1217854564   -2.2532241560    1.4493392845
C        1.8364550272   -0.7644529940    0.6154688184
C        0.4331541095   -1.8869527223    2.7608959490
C        2.1448361921   -0.3784699469    1.9206936561
C        1.6757343784   -0.0912229523    6.4836082299
C        2.9944434574   -0.0401287909    5.9742219972
C        1.4327759921   -0.9350041086    2.9892529013
C        0.8812779162   -0.3899417748    5.3891375080
C       -0.6118980714   -0.4657967328    5.3659298979
C       -2.7164949183    0.0619638657    4.2683855308
C       -0.6959032682    1.3017741475    3.5838585707
N        3.0307298153   -0.3060628271    4.6684232408
N        1.7330989968   -0.5135369689    4.3132456775
N       -1.2751974779    0.2386838605    4.3960012881
O       -1.1962933176   -1.1337089942    6.2242216007
H        0.5762814512   -1.9863619432   -0.6450708225
H       -0.6550216056   -2.9921913839    1.2725754922
H        2.3892998141   -0.3329892088   -0.2146404199
H       -0.0828646346   -2.3491127141    3.5957927088
H        2.9290875773    0.3420818618    2.1262634810
H        1.3282706186    0.0819809128    7.4923819138
H        3.9181375076    0.1663940645    6.5006591459
H       -3.2590006021    0.9116245889    4.7027962531
H       -3.0150781601   -0.8454131453    4.7911376858
H       -2.9778511474   -0.0159404694    3.2072061126
H       -0.6525423680    1.0148838150    2.5269402634
H        0.3088765497    1.5480046466    3.9223957124
H       -1.3145276790    2.2022373589    3.6772611736
29   
torsion grid (150,)
C        0.8603204237   -1.6846272960    0.3448270811
C        0.1417471780   -2.2340434942    1.4115703446
C        1.8733938491   -0.7526430982    0.5995432108
C        0.4251060902   -1.8535958163    2.7254430948
C        2.1535785079   -0.3537518641    1.9071589957
C        1.6211566007   -0.1049385611    6.4737512383
C        2.9464651489   -0.0837997747    5.9853615695
C        1.4184912855   -0.8991426560    2.9654529450
C        0.8285753515   -0.3507886737    5.3626349257
C       -0.6643655116   -0.3104451327    5.3607028892
C       -2.7726447453    0.1616726744    4.2703492771
C       -0.7437561674    1.2547857293    3.3981628026
N        2.9912120645   -0.3143018998    4.6727652666
N        1.6935610299   -0.4650114848    4.2922397585
N       -1.3163788484    0.2517811581    4.2911983412
O       -1.2704068067   -0.7547582643    6.3405692432
H        0.6405895819   -1.9876419581   -0.6752251017
H       -0.6314770273   -2.9745209141    1.2255935493
H        2.4436439108   -0.3292196250   -0.2228722125
H       -0.1120535398   -2.3016072269    3.5543391447
H        2.9332303685    0.3692293506    2.1220087191
H        1.2612423346    0.0612736683    7.4791086090
H        3.8691527422    0.0794031602    6.5284821840
H       -3.2364036324    1.0218949182    4.7711782958
H       -3.0896147714   -0.7451980589    4.7838194569
H       -3.1089087528    0.1348576542    3.2290921350
H       -0.7508882428    0.9105556868    2.3584090821
H        0.2791804677    1.4935170770    3.6816585793
H       -1.3347574518    2.1763653761    3.4677894867
29   
torsion grid (165,)
C        0.9139059782   -1.6603545095    0.3373624102
C        0.2006446402   -2.2262565502    1.3990058086
C        1.9082845100   -0.7104376425    0.5995579627
C        0.4705728779   -1.8447114774    2.7154308871
C        2.1751423132   -0.3115728538    1.9099209183
C        1.6515861718   -0.1884151747    6.4913981955
C        2.9741360207   -0.1603315153    6.0007079692
C        1.4451347667   -0.8736293306    2.9625905608
C        0.8486589928   -0.3790488188    5.3747650450
C       -0.6385505106   -0.2458100803    5.4150956094
C       -2.7835855246    0.1566744230    4.3852153926
C       -0.7959764465    1.1518094755    3.3398201381
N        3.0111215142   -0.3282602623    4.6783222005
N        1.7112781751   -0.4421553377    4.2940433232
N       -1.3253305927    0.1847212075    4.3012859839
O       -1.2151252381   -0.4913275136    6.4788174607
H        0.7042707800   -1.9638145093   -0.6846844764
H       -0.5587386050   -2.9793587738    1.2067332965
H        2.4744138616   -0.2738338414   -0.2187910072
H       -0.0660271492   -2.2989415350    3.5410096389
H        2.9410550884    0.4243607707    2.1305335758
H        1.2930879941   -0.0504536356    7.5012754444
H        3.9006537167   -0.0307164228    6.5463351113
H       -3.1788190261    1.0491122196    4.8886619411
H       -3.1033891863   -0.7207522886    4.9463073230
H       -3.1889331275    0.1123357363    3.3698621527
H       -0.8637128658    0.7708496028    2.3157609706
H        0.2418284578    1.3941334326    3.5557921705
H       -1.3759699356    2.0808263988    3.4101262255
29   
torsion grid (180,)
C        0.9658626717   -1.6385815204    0.3365178202
C        0.2494665696   -2.2134485767    1.3910938185
C        1.9437981414   -0.6739026419    0.6072095062
C        0.4999377763   -1.8261176491    2.7098045981
C        2.1916380330   -0.2708762087    1.9200063069
C        1.6457373172   -0.2527220762    6.5077380270
C        2.9700103699   -0.2313901108    6.0253589469
C        1.4583304720   -0.8418489856    2.9652354578
C        0.8396801782   -0.3864031597    5.3829943118
C       -0.6360255928   -0.1487655277    5.4518303735
C       -2.8129827419    0.1814405552    4.4837634818
C       -0.8717302987    1.0588668063    3.2752485044
N        3.0086819420   -0.3406014700    4.6972765427
N        1.7089691046   -0.4093214740    4.3016055252
N       -1.3608747197    0.1438849000    4.3112054387
O       -1.1724078914   -0.1844768124    6.5623285138
H        0.7709903252   -1.9458701109   -0.6873043157
H       -0.4981187354   -2.9764490233    1.1916264409
H        2.5118554120   -0.2300409952   -0.2058963968
H       -0.0430623494   -2.2804402436    3.5310447065
H        2.9454705773    0.4755006488    2.1474822426
H        1.2845453216   -0.1325150860    7.5186737653
H        3.8963799724   -0.1410578436    6.5791687456
H       -3.1448014008    1.1140198362    4.9593322145
H       -3.1333497775   -0.6520729958    5.1084981430
H       -3.2778476428    0.0983576348    3.4970130086
H       -0.9887196307    0.6269107922    2.2767336413
H        0.1751157359    1.3073403319    3.4288022675
H       -1.4435075577    1.9945583372    3.3260287386
