17   
torsion grid (-165,)
C       -0.7734593488   -1.0713699918    0.3609261913
C        0.3902975602   -0.3134461601    1.0013505618
C       -0.0145143585   -0.0470712223   -0.4168767195
C       -2.0624260059    3.5286148504   -0.7831371873
C       -0.6047809251    1.2410412010   -0.9406274077
O       -2.6354221845    1.4709025794    0.8511837285
F        0.8597821327   -0.5604688951   -1.3813682199
S       -1.4244225182    2.2540703572    0.3701513231
H       -0.5998819091   -2.1073439836    0.0875585806
H       -1.7790053223   -0.8116110072    0.6763746272
H        0.1661117031    0.4220627774    1.7678707302
H        1.3249975632   -0.8486412711    1.1349865595
H       -2.6378909015    4.2316409106   -0.1775504445
H       -2.7172278073    3.0474863877   -1.5137380806
H       -1.2345343789    4.0474604300   -1.2739226348
H       -1.3492251451    1.0347553783   -1.7166593905
H        0.1977011304    1.8600923279   -1.3563330988
17   
torsion grid (-150,)
C       -0.7510599050   -1.1235909962    0.2708292437
C        0.2912832626   -0.3164879687    1.0409669681
C        0.0087074514   -0.0298931290   -0.4058670194
C       -2.0536653409    3.5393807401   -0.7903572710
C       -0.6313373649    1.2240250441   -0.9610714096
O       -2.4189937043    1.5999534247    1.0348093481
F        1.0172310310   -0.4549039067   -1.2783289362
S       -1.2756883842    2.3413901926    0.3586128246
H       -0.4963532830   -2.1409285935   -0.0089585654
H       -1.7940095961   -0.9276660961    0.5008279202
H       -0.0614563611    0.3657324251    1.8067227730
H        1.2454630820   -0.7928483234    1.2425457682
H       -2.5436830918    4.2907681841   -0.1678176422
H       -2.7997842426    3.0157996955   -1.3931145472
H       -1.2954088154    4.0120251805   -1.4206072536
H       -1.4629174127    0.9830727711   -1.6309152097
H        0.1277719593    1.7923460247   -1.5080878730
17   
torsion grid (-135,)
C       -0.6845330434   -1.2019059720    0.1951440252
C        0.2104256150   -0.3291131489    1.0687182366
C        0.0145219850   -0.0158657480   -0.3885588076
C       -2.0098445883    3.5802783792   -0.8040195579
C       -0.7136832971    1.1873109677   -0.9532175302
O       -2.2870792786    1.7648463290    1.1600008440
F        1.1226615486   -0.3168729484   -1.1882869569
S       -1.1797881960    2.4155727323    0.3430469493
H       -0.3135567906   -2.1804932066   -0.0927263469
H       -1.7570005114   -1.1193270895    0.3451726632
H       -0.2678316862    0.2902790152    1.8189335106
H        1.1878938695   -0.7226715558    1.3289718611
H       -2.4500159169    4.3627554356   -0.1825692363
H       -2.7994086295    3.0505582592   -1.3428912352
H       -1.2825668710    4.0157426976   -1.4948175553
H       -1.6366478256    0.9010524368   -1.4666842538
H       -0.0474470991    1.6960280853   -1.6560274912
17   
torsion grid (-120,)
C       -0.6031201051   -1.2757928507    0.1130879567
C        0.1236153104   -0.3605338659    1.0918369205
C        0.0133876252    0.0041362142   -0.3620383650
C       -1.9637323856    3.6203784939   -0.8305298095
C       -0.7979035057    1.1542237764   -0.9210988816
O       -2.1542940569    1.9478708132    1.2642396248
F        1.1963699670   -0.1558879716   -1.0914288353
S       -1.0901969004    2.4929275685    0.3215613412
H       -0.1062717542   -2.1942593961   -0.1828894120
H       -1.6867053260   -1.3199095388    0.1720993023
H       -0.4714975777    0.1872253022    1.8140350681
H        1.1106161622   -0.6715851084    1.4192644723
H       -2.3358355893    4.4504804251   -0.2266527792
H       -2.8051376808    3.0899606518   -1.2838775074
H       -1.2731870669    3.9917461803   -1.5928109628
H       -1.7921551254    0.8333840935   -1.2457539366
H       -0.2578527066    1.5838098813   -1.7688550777
17   
torsion grid (-105,)
C       -0.5262650991   -1.3282868336    0.0263140128
C        0.0280869239   -0.4062390282    1.1063086040
C        0.0074946515    0.0275525735   -0.3306615623
C       -1.9319594537    3.6449496230   -0.8623708321
C       -0.8662424792    1.1289984702   -0.8795224544
O       -1.9730737322    2.1298361477    1.3577129590
F        1.2463478252    0.0115707396   -0.9775439565
S       -0.9878141712    2.5681596977    0.2833282700
H        0.0820676772   -2.1779399443   -0.2670246991
H       -1.6004782713   -1.4823658930   -0.0179140726
H       -0.6648101896    0.0702006327    1.7912704857
H        1.0060658360   -0.6518476070    1.5079477555
H       -2.2252566881    4.5264487510   -0.2886717694
H       -2.8252492031    3.1137807119   -1.2015995254
H       -1.3029753970    3.9399873997   -1.7069573410
H       -1.8988666173    0.7942838860   -1.0143984453
H       -0.4609723274    1.4690853421   -1.8360283103
17   
torsion grid (-90,)
C       -0.4539637143   -1.3634652677   -0.0550281023
C       -0.0629821532   -0.4614447917    1.1109124609
C       -0.0060485027    0.0486926245   -0.2976189522
C       -1.9097649854    3.6591255651   -0.8960004404
C       -0.9284925225    1.1081151385   -0.8325737137
O       -1.7764709662    2.3007460558    1.4215129632
F        1.2713203058    0.1795110668   -0.8456137773
S       -0.8897120496    2.6304309701    0.2295122015
H        0.2469981660   -2.1428293073   -0.3365309239
H       -1.5027754033   -1.6052138144   -0.2008640202
H       -0.8354471594   -0.0607601110    1.7582284743
H        0.8949381243   -0.6564107350    1.5823107615
H       -2.1151476012    4.5909586051   -0.3651803902
H       -2.8493771718    3.1404985137   -1.1045082036
H       -1.3599773650    3.8672007032   -1.8182271218
H       -1.9710357597    0.7786845323   -0.8025031670
H       -0.6459619577    1.3643349210   -1.8576389302
17   
torsion grid (-75,)
C       -0.3912955129   -1.3811869982   -0.1321063713
C       -0.1535252513   -0.5294698799    1.1116624589
C       -0.0201650981    0.0677449137   -0.2549795772
C       -1.9091711382    3.6590536391   -0.9309154331
C       -0.9712289887    1.1002086052   -0.7819127472
O       -1.5297965858    2.4828642443    1.4595874754
F        1.2826854035    0.3273306559   -0.6799096950
S       -0.7832842501    2.6946681328    0.1513922254
H        0.3812589422   -2.0961166115   -0.3968512383
H       -1.4050606727   -1.6803563065   -0.3826550346
H       -0.9954289523   -0.2122445532    1.7171868053
H        0.7730632267   -0.6956639676    1.6512938820
H       -2.0318542045    4.6358872446   -0.4586491659
H       -2.8770484175    3.1535250271   -0.9856750069
H       -1.4682470519    3.7774794340   -1.9247171957
H       -2.0095138928    0.7937000303   -0.6269906007
H       -0.7852882714    1.2807510589   -1.8455716623
17   
torsion grid (-60,)
C        1.0197292973   -1.1249253217   -1.4636247497
C        0.0380071093   -1.0853838649   -0.2940141459
C        0.7389545009    0.1595386057   -0.7453406044
C        0.6526239619    3.5288992172    0.1258940047
C        0.0159620711    1.3020021270   -1.3944165427
O       -1.7679457757    3.2849625473   -1.0121630401
F        1.7546271448    0.6015599118    0.1082983769
S       -0.8010074210    2.4563285462   -0.1818519105
H        1.9887530273   -1.5776499545   -1.2790205150
H        0.6350456342   -1.2462314565   -2.4719751619
H       -1.0249494373   -1.1791382815   -0.4957065743
H        0.3717894965   -1.5170362979    0.6438816223
H        0.3166120789    4.3139746492    0.8066117750
H        0.9607036102    3.9712505401   -0.8250697663
H        1.4588867989    2.9468911532    0.5754689194
H       -0.8206224494    0.9356151187   -1.9941193987
H        0.6724881257    1.8955185386   -2.0393472103
17   
torsion grid (-45,)
C        1.1154068433   -1.0557196921   -1.4376400467
C        0.0102629016   -1.1824270754   -0.3895103371
C        0.6550068955    0.1412141063   -0.6663459379
C        0.7363535449    3.5590873035    0.0333164613
C       -0.0829129115    1.2819046415   -1.3119943461
O       -1.7726752577    3.3329157658   -0.8873984570
F        1.5239359313    0.5803402781    0.3389940092
S       -0.7657975010    2.5163693536   -0.0937630739
H        2.0909723797   -1.4535748085   -1.1762843513
H        0.8546380427   -1.1204008305   -2.4901127142
H       -1.0124392966   -1.3367263763   -0.7205265364
H        0.2731432182   -1.6651083439    0.5460910550
H        0.4777376688    4.3879812572    0.6956474955
H        0.9713601516    3.9426321353   -0.9629908373
H        1.5629369053    2.9791914713    0.4465931073
H       -0.9699458148    0.9234997722   -1.8388587951
H        0.5416740725    1.8349968200   -2.0217116169
17   
torsion grid (-30,)
C        1.2032711590   -0.9546559896   -1.3983401040
C        0.0243378313   -1.2541987873   -0.4724619606
C        0.5675683173    0.1362243592   -0.5968869575
C        0.8153801089    3.5362888290   -0.0419793651
C       -0.2139867244    1.2601915730   -1.2363472221
O       -1.7381783948    3.4328074842   -0.8481416333
F        1.2993257891    0.5631330278    0.5184722896
S       -0.7561197246    2.5916913434   -0.0499791888
H        2.1835126637   -1.2898628208   -1.0738113635
H        1.0431401764   -0.9595857600   -2.4728436846
H       -0.9453564448   -1.4693266605   -0.9115603836
H        0.2451431003   -1.7827917991    0.4492252844
H        0.6346777207    4.4192732102    0.5748187885
H        1.0351917397    3.8428754043   -1.0679041697
H        1.6188389800    2.9309521294    0.3799314659
H       -1.1538237357    0.8981691566   -1.6585298946
H        0.3467352118    1.7649910782   -2.0301568228
17   
torsion grid (-15,)
C        1.2802668328   -0.8258669461   -1.3430771756
C        0.0573679346   -1.3030173401   -0.5592604757
C        0.4742511195    0.1340656679   -0.5270504926
C        0.8927225645    3.4808102408   -0.1201945389
C       -0.3527475270    1.2390483951   -1.1568195245
O       -1.6890115555    3.5347865910   -0.8401553737
F        1.0724149037    0.5293862044    0.6773909923
S       -0.7476525583    2.6648845661   -0.0252519521
H        2.2550893839   -1.1027193482   -0.9536002593
H        1.2145296409   -0.7555449517   -2.4252518810
H       -0.8452343806   -1.5625866571   -1.1048311228
H        0.2438045246   -1.8860298553    0.3370072822
H        0.8001183278    4.4142147260    0.4392572631
H        1.1068340945    3.7006622494   -1.1692865907
H        1.6585651354    2.8431838198    0.3238860628
H       -1.3408586453    0.8806050582   -1.4545298453
H        0.1291979782    1.6802933580   -2.0347272897
17   
torsion grid (0,)
C        1.3419424984   -0.6769158454   -1.2746618548
C        0.1055336199   -1.3223957345   -0.6485265302
C        0.3823314675    0.1353719688   -0.4622712822
C        0.9649011425    3.3971942461   -0.2007997385
C       -0.4899777415    1.2171005900   -1.0751272611
O       -1.6280259639    3.6239689107   -0.8563752154
F        0.8519791165    0.4809909520    0.8124510057
S       -0.7343638009    2.7280380502   -0.0171483301
H        2.3004376903   -0.9053265442   -0.8189315352
H        1.3625878914   -0.5201412220   -2.3494505306
H       -0.7208965999   -1.6057186464   -1.2941886195
H        0.2660125680   -1.9652477796    0.2112396851
H        0.9652205223    4.3693259251    0.2968746080
H        1.1711672146    3.5292132380   -1.2660182160
H        1.6865127493    2.7277721436    0.2704716614
H       -1.5144956253    0.8700971975   -1.2343623808
H       -0.1012089757    1.5828483282   -2.0296703874
17   
torsion grid (15,)
C        1.3847270913   -0.5127824452   -1.1963539074
C        0.1644343651   -1.3124727989   -0.7399802866
C        0.2923424630    0.1381918345   -0.4038553708
C        1.0314108176    3.2890393137   -0.2852623277
C       -0.6202372214    1.1952452722   -0.9918710154
O       -1.5584489207    3.6966948862   -0.8784724779
F        0.6363821115    0.4129358184    0.9258183677
S       -0.7111768604    2.7760591508   -0.0180704999
H        2.3189759830   -0.7047596695   -0.6779725442
H        1.4792287057   -0.2572406839   -2.2478303760
H       -0.5797417536   -1.6005425221   -1.4771603375
H        0.3107434907   -2.0170416953    0.0727516639
H        1.1268048075    4.2859940722    0.1502026452
H        1.2198251813    3.3372872132   -1.3607635333
H        1.7090011151    2.5919212752    0.2112936110
H       -1.6638978528    0.8668054023   -1.0124385221
H       -0.3307157490    1.4808413541   -2.0065300106
17   
torsion grid (30,)
C        1.4128811006   -0.3597341553   -1.1010507671
C        0.2236675538   -1.2806227024   -0.8309957123
C        0.2133269203    0.1345782197   -0.3493602486
C        1.0862552225    3.1851970907   -0.3798294509
C       -0.7267201648    1.1741455264   -0.9072481794
O       -1.4939776333    3.7393184353   -0.9035666373
F        0.4245822680    0.3071337804    1.0221694376
S       -0.6755281301    2.8091200434   -0.0254945643
H        2.3126742741   -0.5393047990   -0.5210629139
H        1.5753264223    0.0037470396   -2.1114852473
H       -0.4344895802   -1.5452915615   -1.6536562030
H        0.3555236202   -2.0495061596   -0.0761363262
H        1.2550394021    4.2053597697   -0.0285412050
H        1.2497767124    3.1354557693   -1.4592992701
H        1.7346908857    2.4887569176    0.1556299407
H       -1.7735642143    0.8702947781   -0.8054788816
H       -0.5298068856    1.3875277856   -1.9610886930
17   
torsion grid (45,)
C        1.4364230597   -0.2622750889   -0.9742970841
C        0.2671999967   -1.2429612492   -0.9298666098
C        0.1528932849    0.1069091656   -0.2915326364
C        1.1255103565    3.1356827010   -0.5051357022
C       -0.7856994420    1.1583325569   -0.8128660400
O       -1.4677794627    3.7470757080   -0.8757047999
F        0.2129954500    0.1197553639    1.1026602095
S       -0.6159257591    2.8288804233   -0.0152897572
H        2.2841492515   -0.4800619429   -0.3323008200
H        1.6801012846    0.2202019534   -1.9161055724
H       -0.2966543167   -1.4306089613   -1.8389432357
H        0.3567622105   -2.0889303269   -0.2556696790
H        1.3457561901    4.1627373200   -0.2062916574
H        1.2136891348    3.0410170428   -1.5903802533
H        1.7925332802    2.4422996950    0.0114869213
H       -1.8291071783    0.8899384404   -0.6186381724
H       -0.6631895669    1.3181829770   -1.8876200328
17   
torsion grid (60,)
C        1.4609827819   -0.2319714231   -0.7941100779
C        0.3086075337   -1.2008932419   -1.0343997523
C        0.0961893534    0.0536063059   -0.2386724112
C        1.1448343052    3.1361566368   -0.6835987340
C       -0.8019177636    1.1534476537   -0.7226717821
O       -1.4706573641    3.7444331993   -0.7019342017
F       -0.0371669172   -0.1422843650    1.1345747817
S       -0.5124226602    2.8253621715    0.0377834029
H        2.2207263035   -0.5331952554   -0.0798242880
H        1.8191232733    0.3647577907   -1.6270799382
H       -0.1249718313   -1.2617215012   -2.0281173444
H        0.3137273367   -2.1290696489   -0.4718491020
H        1.3778084701    4.1769657540   -0.4485163958
H        1.0993999662    3.0069658791   -1.7681681126
H        1.8877161157    2.4753075335   -0.2321896693
H       -1.8448187644    0.9361986249   -0.4726021114
H       -0.7275023652    1.2921096644   -1.8051191854
17   
torsion grid (75,)
C        1.4749603768    0.2315218520   -0.3191458028
C        0.7266326466   -0.8482137921   -1.0931268464
C       -0.0167932147    0.1382668884   -0.2366014782
C       -1.3060156560    2.3484132420    1.7181751981
C       -0.9196306815    1.1832910930   -0.8198920704
O        0.5552561903    3.3099131269    0.0283021859
F       -0.5180467758   -0.3704477744    0.9645423069
S       -0.8951111192    2.8535664230    0.0054886380
H        2.0219583643   -0.0845108602    0.5630735631
H        1.8961661566    1.0810706968   -0.8439629055
H        0.6403965784   -0.7654743571   -2.1728102829
H        0.7831460737   -1.8619787964   -0.7096352395
H       -1.4113995819    3.2775845628    2.2824525914
H       -0.4876096336    1.7515181310    2.1203077037
H       -2.2424999947    1.7854779773    1.7350696244
H       -1.9617520787    0.8443591153   -0.8299384531
H       -0.6184201992    1.4100623245   -1.8458010332
17   
torsion grid (90,)
C        1.3615532797    0.2710354227   -0.1049737092
C        0.8014543398   -0.7446032275   -1.0929696979
C       -0.1201367367    0.0934093119   -0.2520222373
C       -1.1191066407    2.3333089241    1.6749595263
C       -1.0283795193    1.1334283604   -0.8438693608
O        0.4840674853    3.3172279285   -0.2549170203
F       -0.7527300313   -0.5900574703    0.7920846815
S       -0.9464923414    2.8301643693   -0.0798681605
H        1.7978222426   -0.1256276868    0.8064794433
H        1.7896567382    1.1985001332   -0.4665895745
H        0.8640721079   -0.5341451472   -2.1567009365
H        0.8728792796   -1.7929064874   -0.8213371411
H       -1.0997826830    3.2585608340    2.2545106198
H       -0.2775201187    1.6980950936    1.9539700794
H       -2.0664113017    1.8090839353    1.8244687333
H       -2.0699238008    0.8000239372   -0.7990760433
H       -0.7697848482    1.3289216218   -1.8876515025
17   
torsion grid (105,)
C        1.2911928376    0.2615535581    0.0342143292
C        0.8717743213   -0.6450824831   -1.1156005466
C       -0.1626311714    0.0367046624   -0.2665651302
C       -1.0294821119    2.3771379409    1.6343687705
C       -1.1045820591    1.0791024593   -0.8167075411
O        0.4923253126    3.2529061290   -0.4195534804
F       -0.8317804938   -0.8108898199    0.6248071949
S       -0.9355139135    2.8047962580   -0.1452613901
H        1.6660235409   -0.2290877456    0.9273288193
H        1.7017309126    1.2403249251   -0.1847780836
H        1.0123728508   -0.2904007785   -2.1325492096
H        0.9791819342   -1.7155749763   -0.9733579812
H       -0.9272603782    3.3161433332    2.1820018932
H       -0.2119873405    1.7022051231    1.8916380180
H       -1.9967630726    1.9155747707    1.8504680264
H       -2.1399589577    0.7665968612   -0.6541807498
H       -0.9534047600    1.2224096352   -1.8897752391
17   
torsion grid (120,)
C        1.2305711803    0.2198275784    0.1484602751
C        0.9398441772   -0.5376208439   -1.1402469700
C       -0.1856511431   -0.0264773949   -0.2913742955
C       -0.9715240524    2.4439364150    1.5942588223
C       -1.1675029713    1.0202386613   -0.7748740588
O        0.5203873080    3.1582618380   -0.5509347793
F       -0.8569144001   -1.0185233160    0.4356053011
S       -0.9105761598    2.7690796462   -0.2100527979
H        1.5610212753   -0.3706205847    0.9977083142
H        1.6190251887    1.2288173967    0.0742395487
H        1.1320992326   -0.0303739307   -2.0812861367
H        1.0958572698   -1.6116120741   -1.1415941796
H       -0.8022172603    3.4040957039    2.0857159995
H       -0.1887299646    1.7370404574    1.8720525520
H       -1.9585229972    2.0548188187    1.8590127355
H       -2.1780047589    0.7396151035   -0.4652257775
H       -1.1579244728    1.1039163778   -1.8649668536
17   
torsion grid (135,)
C        1.1793473466    0.1615042488    0.2407317320
C        1.0013467517   -0.4202809277   -1.1563697444
C       -0.1939857905   -0.0837811556   -0.3207567717
C       -0.9364099345    2.5162060256    1.5496668762
C       -1.2219453014    0.9563242281   -0.7222722180
O        0.5512288535    3.0390564290   -0.6595303219
F       -0.8448716890   -1.1959503665    0.2307685702
S       -0.8862100356    2.7211875109   -0.2740856987
H        1.4844943659   -0.5237425165    1.0257249505
H        1.5414387775    1.1801039939    0.3093011641
H        1.2211020066    0.2322351010   -1.9962329751
H        1.2129555137   -1.4748518903   -1.3013380356
H       -0.6607216031    3.4850407499    1.9711510206
H       -0.2289032264    1.7511680340    1.8708041112
H       -1.9548177255    2.2548459368    1.8503803323
H       -2.1836191534    0.7072690354   -0.2643550648
H       -1.3591917046    0.9780854159   -1.8070902275
17   
torsion grid (150,)
C        1.1365631867    0.0852176243    0.3100824441
C        1.0504439085   -0.3024488294   -1.1625985498
C       -0.1943938370   -0.1328907865   -0.3526932546
C       -0.9148953710    2.5946327460    1.4998355325
C       -1.2674429381    0.8924699066   -0.6579478966
O        0.5803806724    2.9151000383   -0.7441452141
F       -0.8149994128   -1.3370728328    0.0108538787
S       -0.8648476191    2.6707869750   -0.3355139110
H        1.4312019927   -0.6868860014    1.0141388017
H        1.4670670252    1.0936049209    0.5251601990
H        1.2817842189    0.4758714138   -1.8830199175
H        1.3149829136   -1.3173018215   -1.4422806297
H       -0.5452544324    3.5604596343    1.8504224988
H       -0.2829894245    1.7898439830    1.8763734592
H       -1.9517805214    2.4554591123    1.8182307392
H       -2.1605813760    0.6737470978   -0.0646127222
H       -1.5440015342    0.8538266718   -1.7157877582
17   
torsion grid (165,)
C        1.1012102614   -0.0166286773    0.3575306119
C        1.0906006415   -0.2050558562   -1.1581157964
C       -0.1901953477   -0.1758107074   -0.3888770521
C       -0.9025939450    2.6848650884    1.4481461215
C       -1.2961248742    0.8378487168   -0.5822240269
O        0.5948832901    2.8280127510   -0.8040376947
F       -0.7882912914   -1.4359195516   -0.2344845359
S       -0.8547678072    2.6302221110   -0.3883564453
H        1.3926941796   -0.8634358209    0.9710455301
H        1.3947696806    0.9619183782    0.7170233766
H        1.3361107723    0.6667443149   -1.7545180901
H        1.3893083467   -1.1714689468   -1.5519216258
H       -0.5194345710    3.6680970610    1.7288578250
H       -0.2793046747    1.9008640412    1.8793644725
H       -1.9397899660    2.5816668999    1.7788830583
H       -2.1090972323    0.6427293578    0.1243617515
H       -1.6987400111    0.7497706924   -1.5961797806
17   
torsion grid (180,)
C       -0.7595712887   -1.0313282803    0.4744967308
C        0.4971889861   -0.2986086925    0.9518126387
C       -0.0497158830   -0.0717091607   -0.4234783342
C       -2.0410689872    3.5408002405   -0.7585807130
C       -0.6225936416    1.2324798351   -0.9231542968
O       -2.9064429936    1.3577872413    0.5489883094
F        0.6774781748   -0.6607209346   -1.4624156543
S       -1.6192571723    2.1389708231    0.3451144415
H       -0.6465595137   -2.0820881287    0.2270965603
H       -1.7251107851   -0.7370539696    0.8726303755
H        0.3923565244    0.4874385937    1.6943508063
H        1.4156478306   -0.8734098061    1.0148730007
H       -2.7130417814    4.1863387398   -0.1895534597
H       -2.5582659091    3.1537968356   -1.6399677411
H       -1.1390274294    4.0917030087   -1.0377864029
H       -1.2870197435    1.0452585201   -1.7733898250
H        0.1911028971    1.8985198035   -1.2308473175
