22   
torsion grid (-165,)
C        1.1811600147   -1.0862530902   -0.7419035773
C        0.0183311541    2.2177110513   -1.0635812095
C        1.4608175032    0.2109592442   -0.5559868873
C       -0.6465768685    3.3618946086   -0.8353748076
C        2.8176181114    0.7962361585   -0.8623711990
C       -1.0377629990    4.2801011920   -1.9690504573
C       -1.0658803030    3.8292121947    0.5374524277
C        0.4270353107    1.1833479477   -0.0280927746
H        0.1989428392   -1.4947128774   -0.5137659432
H        1.9243197719   -1.7807087489   -1.1278773470
H        0.2467226987    1.9581001482   -2.0975372614
H        2.7366369477    1.6237594399   -1.5772847441
H        3.5002602318    0.0483611049   -1.2748549721
H        3.2708467526    1.2134304279    0.0462200129
H       -2.1269060254    4.4132616002   -2.0093504763
H       -0.7062362485    3.8947855604   -2.9373746260
H       -0.6048161578    5.2798263106   -1.8320105890
H       -0.6525661991    4.8231357216    0.7528202541
H       -2.1579568389    3.9273209889    0.5920104742
H       -0.7526903369    3.1512048333    1.3337838236
H        0.8316876223    1.6825151778    0.8621695114
H       -0.4554055000    0.6223856231    0.3040004833
22   
torsion grid (-150,)
C        1.2751373201   -1.1040439327   -0.8033501582
C       -0.1159256824    2.1203507670   -1.0821557908
C        1.4306256352    0.2039538970   -0.5573425872
C       -0.6381282658    3.3346040058   -0.8418129380
C        2.7471505432    0.9137557972   -0.7563588285
C       -1.0365510337    4.2469396817   -1.9785775928
C       -0.8829876552    3.9016099281    0.5357902000
C        0.2845209728    1.0667783375   -0.0685407089
H        0.3188602165   -1.6012742881   -0.6547412199
H        2.0982641418   -1.7193530388   -1.1602616418
H       -0.0112528760    1.8101093679   -2.1227462703
H        2.6393081102    1.7454881907   -1.4626904470
H        3.5215621536    0.2384560311   -1.1301934765
H        3.0964803069    1.3507282178    0.1881634118
H       -2.1044552549    4.4966466942   -1.9260526576
H       -0.8411544889    3.7919848157   -2.9536421763
H       -0.4898277155    5.1978400050   -1.9284301884
H       -0.3753853401    4.8678031503    0.6526083351
H       -1.9536909863    4.0918838389    0.6858959064
H       -0.5478875412    3.2426880916    1.3388918439
H        0.5700103517    1.5369350050    0.8800208250
H       -0.5770914307    0.4219900545    0.1475662754
22   
torsion grid (-135,)
C        1.3570210218   -1.0852744050   -0.8741278315
C       -0.2578252982    2.0281100601   -1.0983833855
C        1.3963722200    0.2152123196   -0.5533644111
C       -0.6320232885    3.2959588513   -0.8564792115
C        2.6643145686    1.0294320352   -0.6264521520
C       -1.0517448469    4.2069730851   -1.9872511341
C       -0.6779363197    3.9367752503    0.5098238260
C        0.1564267127    0.9655663584   -0.1043694537
H        0.4333973822   -1.6574858619   -0.8158719824
H        2.2457565384   -1.6193559439   -1.2035045036
H       -0.2773678314    1.6834771116   -2.1335301586
H        2.5382147482    1.8850978585   -1.3001614794
H        3.5116437837    0.4328798454   -0.9752438358
H        2.9155334057    1.4421573915    0.3593500601
H       -2.0783055227    4.5674890274   -1.8401597204
H       -1.0036815423    3.7026761981   -2.9563566456
H       -0.4107297400    5.0973502206   -2.0320701350
H       -0.0576948901    4.8421427178    0.5306576891
H       -1.7010004089    4.2542278035    0.7495827520
H       -0.3383361906    3.2767865668    1.3098278045
H        0.3407471147    1.4072128505    0.8811118664
H       -0.6652001354    0.2484652764    0.0190121575
22   
torsion grid (-120,)
C        1.4319495538   -1.0333346473   -0.9440710719
C       -0.4017996908    1.9446029413   -1.1089842140
C        1.3571320157    0.2433423599   -0.5433600678
C       -0.6255675289    3.2495779157   -0.8777909644
C        2.5642937652    1.1459001724   -0.4818216333
C       -1.0716302278    4.1659518712   -1.9941030869
C       -0.4582900466    3.9327541654    0.4582324603
C        0.0386267573    0.8765861459   -0.1342814618
H        0.5508927144   -1.6707525139   -0.9814368243
H        2.3756566860   -1.4824754612   -1.2462179047
H       -0.5473677391    1.5796446811   -2.1268553714
H        2.4154590670    2.0356133201   -1.1045275184
H        3.4716016620    0.6346583325   -0.8147778320
H        2.7272154102    1.5032441134    0.5434169757
H       -2.0379920977    4.6302017776   -1.7576222233
H       -1.1729497287    3.6328572447   -2.9434642142
H       -0.3565251883    4.9869345295   -2.1369238805
H        0.2852787398    4.7370562854    0.3853703187
H       -1.3989534080    4.4049260203    0.7692894416
H       -0.1428982810    3.2569128507    1.2546995246
H        0.1330933297    1.2865865025    0.8767661596
H       -0.7296442829    0.0950860100   -0.0894964961
22   
torsion grid (-105,)
C        1.5031668522   -0.9583810984   -0.9924989274
C       -0.5422798304    1.8746618170   -1.1170442296
C        1.3136023078    0.2848329769   -0.5287104603
C       -0.6139491209    3.1997042280   -0.9031709645
C        2.4482231006    1.2621884284   -0.3479761791
C       -1.0864130363    4.1357912733   -1.9915807597
C       -0.2351154562    3.8846735348    0.3879119661
C       -0.0696344499    0.7988987045   -0.1650780574
H        0.6748587859   -1.6531240099   -1.1154510246
H        2.4922974522   -1.3221506397   -1.2625094009
H       -0.8170619624    1.5061517360   -2.1061706150
H        2.2710946602    2.1735606995   -0.9301408900
H        3.4055583188    0.8329478780   -0.6557005305
H        2.5312115446    1.5690144088    0.7028137818
H       -1.9669441279    4.7048525699   -1.6657103572
H       -1.3478054217    3.5976915827   -2.9069244104
H       -0.3107099706    4.8729640549   -2.2377275298
H        0.5850151415    4.5940946915    0.2165779186
H       -1.0782433469    4.4701087236    0.7763691245
H        0.0831991132    3.1916753034    1.1682744691
H       -0.0537341051    1.1717202363    0.8650483937
H       -0.7787549675   -0.0360024822   -0.1885612021
22   
torsion grid (-90,)
C        0.2486740454    0.3246522268    0.5853184305
C        0.8351052965    3.0208645308   -0.4177475199
C        1.2614931739    0.4893273676   -0.2758053372
C       -0.3368964374    3.4904189766   -0.8773713825
C        2.1600014266   -0.6518284476   -0.6876037577
C       -0.9896810803    4.7048047255   -0.2609827532
C       -1.1111484348    2.8598486868   -2.0089625387
C        1.5916696169    1.8223543833   -0.9310989480
H       -0.3937111757    1.1522714661    0.8715681564
H        0.0373853146   -0.6470961506    1.0260924886
H        1.2869538263    3.5313215485    0.4327880361
H        2.1385177616   -0.7936404775   -1.7760165691
H        1.8647931448   -1.5925667102   -0.2150236833
H        3.2037887388   -0.4452047934   -0.4184131689
H       -1.1347104164    5.4946648324   -1.0097040483
H       -0.3928283640    5.1168622159    0.5575526600
H       -1.9854479595    4.4589166083    0.1309309597
H       -2.1053431893    2.5510856758   -1.6614633981
H       -1.2725513651    3.5811254464   -2.8205917613
H       -0.6200537326    1.9779330247   -2.4236237828
H        1.4533708954    1.7078558356   -2.0143168009
H        2.6682003954    2.0019036456   -0.8034851660
22   
torsion grid (-75,)
C        0.1778776078    0.3794098242    0.5009883627
C        0.9121831312    3.1034622765   -0.4065718394
C        1.2303569998    0.5378902509   -0.3118175958
C       -0.3039564277    3.4723945839   -0.8429773813
C        2.0684573509   -0.6303750155   -0.7734067554
C       -0.9936910640    4.7010568923   -0.3007853798
C       -1.0817636880    2.7110875804   -1.8881199414
C        1.6897799218    1.8863591005   -0.8477089571
H       -0.4204068872    1.2242642274    0.8283973151
H       -0.1110968265   -0.6059777990    0.8596035778
H        1.3758929768    3.7089876903    0.3716647737
H        2.0769836047   -0.6974620883   -1.8691143760
H        1.6972999768   -1.5788475024   -0.3759149023
H        3.1131331130   -0.5121283453   -0.4580046071
H       -1.2063708055    5.4188451357   -1.1038456831
H       -0.3893209512    5.2065240106    0.4577032858
H       -1.9605510872    4.4406890743    0.1499071590
H       -2.0176492644    2.3263746734   -1.4629615283
H       -1.3608287798    3.3708603492   -2.7197971127
H       -0.5311651534    1.8590143986   -2.2900550339
H        1.6981517199    1.8181999315   -1.9452964769
H        2.7442660135    2.0152453683   -0.5698467882
22   
torsion grid (-60,)
C        0.1533489737    0.4158257113    0.4917108842
C        0.9632469484    3.1666922071   -0.3938921252
C        1.2043454692    0.5758377615   -0.3222561657
C       -0.2779206255    3.4505149852   -0.8243567410
C        1.9568035245   -0.6009692429   -0.8955394150
C       -0.9999972381    4.6953265201   -0.3674482065
C       -1.0429017487    2.5897004770   -1.7993676715
C        1.7724716591    1.9309183355   -0.7210860567
H       -0.3859379077    1.2657124896    0.8990327482
H       -0.1974835344   -0.5761390155    0.7671880494
H        1.4216357785    3.8622666829    0.3084431896
H        1.9074472901   -0.5986733126   -1.9923530539
H        1.5564518307   -1.5530853494   -0.5370837700
H        3.0207674973   -0.5545215505   -0.6296131829
H       -1.2546664232    5.3388853157   -1.2195976833
H       -0.4007840980    5.2799189068    0.3363050689
H       -1.9477857541    4.4376200545    0.1237440100
H       -1.9143261192    2.1323407091   -1.3134256295
H       -1.4244856840    3.2002145256   -2.6277013972
H       -0.4392414917    1.7807203770   -2.2133726002
H        1.9704289141    1.8950111896   -1.8036205117
H        2.7661642201    2.0217568397   -0.2636696246
22   
torsion grid (-45,)
C        0.1586620152    0.4015575377    0.5047577973
C        0.9886787774    3.2031127830   -0.3860127441
C        1.1927343164    0.5941263490   -0.3237063183
C       -0.2653268095    3.4276718709   -0.8156139345
C        1.8720950931   -0.5514542535   -1.0330325329
C       -0.9884941947    4.7059150079   -0.4612435468
C       -1.0409633967    2.4890531275   -1.7079137983
C        1.8295621483    1.9558665269   -0.5700057588
H       -0.3279231253    1.2319866684    1.0085375883
H       -0.2369215351   -0.5944141646    0.6903387563
H        1.4461925741    3.9805682307    0.2256658968
H        1.7844053384   -0.4410321209   -2.1220623577
H        1.4441456943   -1.5170252144   -0.7502254825
H        2.9460446858   -0.5721417856   -0.8064876055
H       -1.2530163987    5.2740041021   -1.3625814536
H       -0.3874288081    5.3502423261    0.1865279189
H       -1.9311798902    4.4865955563    0.0577572777
H       -1.8598917183    2.0077985362   -1.1579330653
H       -1.4960645503    3.0497872569   -2.5340950626
H       -0.4217599613    1.6959189287   -2.1281151045
H        2.2420473331    1.9482851337   -1.5910991102
H        2.7119838934    2.0294522145    0.0785827556
22   
torsion grid (-30,)
C        0.2808679410    0.3172077841    0.6460644655
C        0.9942452234    3.2199759294   -0.3530363108
C        1.2117431846    0.6100760766   -0.2710594959
C       -0.2493405134    3.3897880193   -0.8342765817
C        1.7152663924   -0.4133132639   -1.2572309876
C       -0.9633874689    4.7107352317   -0.6547030686
C       -1.0379915415    2.3574572369   -1.6053688045
C        1.8727732300    1.9823091632   -0.3394904708
H       -0.0808948453    1.0677039497    1.3451563165
H       -0.1614137538   -0.6742624124    0.7109834578
H        1.4447054809    4.0793424406    0.1449011371
H        1.5357424083   -0.0807059010   -2.2885246066
H        1.2324892583   -1.3849323100   -1.1201422765
H        2.7998656303   -0.5508921155   -1.1590750741
H       -1.1994181592    5.1679118936   -1.6244376623
H       -0.3699944400    5.4231841941   -0.0747742737
H       -1.9206979897    4.5650284747   -0.1364393998
H       -1.8157118360    1.9041321764   -0.9774560185
H       -1.5460430570    2.8358253510   -2.4518284584
H       -0.4197028489    1.5480312862   -1.9919857450
H        2.5301290651    2.0106711253   -1.2209255035
H        2.5543501208    2.0706002871    0.5156894767
22   
torsion grid (-15,)
C        0.6721774905   -0.1085046342    0.8404748138
C        0.9203582089    3.1790146408   -0.2226592191
C        1.2441861379    0.5682648943   -0.1645088764
C       -0.2521747797    3.3501029214   -0.8581704771
C        1.4322261583   -0.0340111061   -1.5365133177
C       -0.8182907619    4.7449189511   -1.0225298124
C       -1.1265095043    2.2705722065   -1.4526608609
C        1.7977820486    1.9657521635    0.0353230420
H        0.5665263398    0.3288548424    1.8310406518
H        0.2813712873   -1.1142586435    0.7019748116
H        1.4039850636    4.0920111612    0.1302290471
H        1.0632237687    0.6371698594   -2.3201250678
H        0.9217164287   -0.9962104995   -1.6350983367
H        2.4999839256   -0.1917854371   -1.7363967486
H       -0.9876626312    4.9716996196   -2.0836693833
H       -0.1538084976    5.5114826845   -0.6140937059
H       -1.7926394246    4.8342909580   -0.5245642219
H       -2.1777301293    2.4614030075   -1.2041341654
H       -1.0598912210    2.2813474264   -2.5490130969
H       -0.8775217045    1.2725277237   -1.0998885294
H        2.6995195447    2.0823518584   -0.5840479243
H        2.1507537326    2.0488800191    1.0710714929
22   
torsion grid (0,)
C        0.7551687563   -0.2205200407    0.8010805528
C        0.9215120923    3.1837072599   -0.2435869914
C        1.2558242434    0.5776676727   -0.1517843397
C       -0.2591130074    3.3285150121   -0.8712380400
C        1.4366502946    0.1149182897   -1.5781828433
C       -0.7712835983    4.7168357157   -1.1933498455
C       -1.2025807578    2.2273811682   -1.2959365537
C        1.7475498493    1.9747438696    0.1584510017
H        0.6555149306    0.1151337862    1.8310877068
H        0.4201577090   -1.2315453127    0.5793463853
H        1.4464071085    4.1111640914   -0.0060776848
H        1.0177652943    0.8365738276   -2.2873251395
H        0.9686816614   -0.8576439813   -1.7544249144
H        2.5053101865    0.0275841414   -1.8132509845
H       -0.9651057265    4.8183642629   -2.2694808710
H       -0.0622694130    5.4967283787   -0.9018397504
H       -1.7244320909    4.9117455915   -0.6845086746
H       -2.2230980986    2.4709038138   -0.9746449896
H       -1.2347307335    2.1458212511   -2.3907911797
H       -0.9463568731    1.2548316815   -0.8819790239
H        2.7361255020    2.1025067032   -0.3082244192
H        1.9298841522    2.0504574349    1.2387007139
22   
torsion grid (15,)
C        0.7915309933   -0.3142615746    0.7346211896
C        0.9377845326    3.1780078203   -0.2675790950
C        1.2518161807    0.5748525465   -0.1563213553
C       -0.2549645037    3.3208638420   -0.8725002427
C        1.4511254498    0.2252997926   -1.6116697666
C       -0.7076853462    4.6917698366   -1.3280957957
C       -1.2647975379    2.2306660858   -1.1433418886
C        1.6850013881    1.9644646732    0.2572188826
H        0.6724067281   -0.0577004209    1.7850865385
H        0.5121810400   -1.3237058559    0.4404072399
H        1.5146119782    4.0949151768   -0.1344254752
H        0.9577684801    0.9512055080   -2.2660155477
H        1.0685190367   -0.7718951454   -1.8458878806
H        2.5191214660    0.2506714441   -1.8639614741
H       -0.9198960739    4.6922543496   -2.4055487639
H        0.0438041112    5.4612556075   -1.1304142144
H       -1.6391364353    4.9845665591   -0.8261154284
H       -2.2447385666    2.5305923837   -0.7504454165
H       -1.3974585838    2.0846912897   -2.2238166412
H       -1.0022619317    1.2756641801   -0.6932530523
H        2.7340008424    2.0901208945   -0.0500425303
H        1.6988482333    2.0215756240    1.3541408332
22   
torsion grid (30,)
C        0.8200464162   -0.3923964562    0.6537705464
C        0.9537038457    3.1669883003   -0.2949042047
C        1.2530863617    0.5711900610   -0.1712501225
C       -0.2538461678    3.3186602583   -0.8669567203
C        1.4899435827    0.3218043909   -1.6404491859
C       -0.6545045082    4.6546533330   -1.4529178541
C       -1.3221445188    2.2572187354   -0.9760427825
C        1.6112395606    1.9522695980    0.3392782039
H        0.6613853426   -0.2052823815    1.7137247569
H        0.6061179716   -1.3967461458    0.2946637968
H        1.5893142033    4.0531447750   -0.2752580003
H        0.9022628950    1.0092543626   -2.2575201044
H        1.2357831661   -0.7037710973   -1.9215589354
H        2.5434124566    0.4978624420   -1.8934996688
H       -0.8941467112    4.5551977258   -2.5200114454
H        0.1367854235    5.4026495226   -1.3512690116
H       -1.5581052144    5.0421917754   -0.9645564662
H       -2.2547767017    2.6230820116   -0.5274008432
H       -1.5496649159    2.0431890499   -2.0290335833
H       -1.0546952689    1.3236277909   -0.4843628887
H        2.6949620437    2.0769652543    0.2022344286
H        1.4514222188    1.9841213113    1.4253601999
22   
torsion grid (45,)
C        0.8265650740   -0.4566504641    0.5539355315
C        0.9684197029    3.1445504983   -0.3305582208
C        1.2593188797    0.5633795514   -0.2003556846
C       -0.2574295254    3.3231711064   -0.8526582058
C        1.5676820759    0.3993736249   -1.6675439134
C       -0.6131083783    4.6103815516   -1.5603137182
C       -1.3791700601    2.3154453753   -0.7866292389
C        1.5297778422    1.9330496398    0.3973669388
H        0.6043568019   -0.3294578937    1.6115356909
H        0.6783742031   -1.4505317465    0.1374210101
H        1.6699195498    3.9720409802   -0.4372129795
H        0.9319108830    1.0512286188   -2.2761217626
H        1.4240652098   -0.6336336711   -1.9956351388
H        2.6047888610    0.6896698559   -1.8795560315
H       -0.9216629256    4.4135564445   -2.5956911303
H        0.2259102205    5.3114948860   -1.5831319319
H       -1.4613976632    5.1061327850   -1.0705147471
H       -2.2641191209    2.7689013349   -0.3216226377
H       -1.6832243744    2.0083630427   -1.7964294156
H       -1.1179966281    1.4197834809   -0.2244918350
H        2.6201140441    2.0590406161    0.4376990781
H        1.1944868094    1.9365850001    1.4425484576
22   
torsion grid (60,)
C        0.7182539586   -0.4707601108    0.3653219313
C        0.9625801248    3.1070203063   -0.3953950781
C        1.2888179504    0.5610283267   -0.2713953722
C       -0.2958309543    3.3248437348   -0.8136182376
C        1.8234712040    0.4393517595   -1.6766012360
C       -0.6416667142    4.5360468876   -1.6469238863
C       -1.4589993245    2.4164161663   -0.4979997728
C        1.4679758395    1.9131913453    0.3996319373
H        0.3335431400   -0.3733593017    1.3786656838
H        0.6165125342   -1.4459701232   -0.1058055462
H        1.7185647192    3.8361737046   -0.6861069507
H        1.3158751404    1.1420800302   -2.3466806030
H        1.6963557468   -0.5724673168   -2.0708863783
H        2.8918441378    0.6902606175   -1.7082153083
H       -1.0843303827    4.2354461537   -2.6059254154
H        0.2367809673    5.1529962001   -1.8563310660
H       -1.3881676618    5.1618707279   -1.1407492034
H       -2.2984483698    2.9986828848   -0.0973526405
H       -1.8243991444    1.9250566775   -1.4096139895
H       -1.2057838950    1.6343590601    0.2173413244
H        2.5401889425    2.0604280854    0.5823374031
H        0.9944435226    1.8831788015    1.3883425198
22   
torsion grid (75,)
C        0.6623143063   -0.4963157066    0.1980554499
C        0.9262396241    3.0410977839   -0.4924099033
C        1.3352765386    0.5353905418   -0.3294231009
C       -0.3504831414    3.3334706669   -0.7927432280
C        2.0744810787    0.4273587368   -1.6399723482
C       -0.6968019544    4.4944856137   -1.6941886236
C       -1.5337136801    2.5518296399   -0.2770412691
C        1.4050899406    1.8841739804    0.3671341062
H        0.1310634327   -0.4073473632    1.1435292025
H        0.6215977081   -1.4640633042   -0.2972702041
H        1.7039438052    3.6637246968   -0.9344263154
H        1.6707044474    1.1366765370   -2.3714892669
H        2.0073902661   -0.5795702437   -2.0607453311
H        3.1357835089    0.6761577878   -1.5093515302
H       -1.2652072020    4.1536273024   -2.5696602265
H        0.1965154348    5.0158353810   -2.0496921114
H       -1.3326904659    5.2212619990   -1.1719789791
H       -2.2647656667    3.2238291709    0.1902885188
H       -2.0510157044    2.0495750088   -1.1047978345
H       -1.2547009704    1.7853846683    0.4464892453
H        2.4487915763    2.0747469482    0.6494671453
H        0.8377685988    1.8345447716    1.3022667198
22   
torsion grid (90,)
C        0.6996335476   -0.5711194334    0.0837989404
C        0.8561747250    2.9545555150   -0.5848491328
C        1.3875911763    0.4859768078   -0.3691446130
C       -0.4122005437    3.3502327865   -0.7851686811
C        2.2675706558    0.4093298013   -1.5919815293
C       -0.7366605920    4.4833105098   -1.7299222804
C       -1.6108045383    2.7168519054   -0.1219534473
C        1.3204100040    1.8352224878    0.3260610460
H        0.0652891486   -0.5033343641    0.9652280136
H        0.7486236374   -1.5387279597   -0.4112158634
H        1.6395088634    3.4720979194   -1.1387743282
H        1.9089495347    1.0912315365   -2.3717643701
H        2.2959026561   -0.6019212848   -2.0066276072
H        3.2951028935    0.7126526335   -1.3523670935
H       -1.4023065634    4.1439764874   -2.5344241355
H        0.1636043632    4.9044531621   -2.1863650487
H       -1.2644775679    5.2914245972   -1.2066595215
H       -2.1794919275    3.4640158257    0.4466367528
H       -2.2935570556    2.3128976470   -0.8803372826
H       -1.3464512243    1.8995869017    0.5501698883
H        2.3250262984    2.0871748503    0.6932525074
H        0.6801439900    1.7559862849    1.2084479014
22   
torsion grid (105,)
C        0.7726314437   -0.6719029112   -0.0216277177
C        0.7601581886    2.8547938394   -0.6635199404
C        1.4357953646    0.4267786254   -0.4075053111
C       -0.4765340804    3.3676105789   -0.7794668099
C        2.4348881267    0.4066930297   -1.5379020120
C       -0.7699582767    4.4717172019   -1.7687632090
C       -1.6733474567    2.9102528344    0.0187859369
C        1.2173535709    1.7640372899    0.2800177000
H        0.0505067968   -0.6452306942    0.7917894556
H        0.9288740570   -1.6330022485   -0.5070364305
H        1.5342940690    3.2641668800   -1.3129689322
H        2.1029364836    1.0453221285   -2.3647821956
H        2.5824150325   -0.6043294676   -1.9269607904
H        3.4072389137    0.7942850308   -1.2071842107
H       -1.5340269239    4.1569667869   -2.4916363069
H        0.1234607062    4.7701320106   -2.3245146109
H       -1.1674019150    5.3593920207   -1.2592853944
H       -2.0930320844    3.7422958890    0.5988470069
H       -2.4680329389    2.5659831642   -0.6552650060
H       -1.4476645073    2.0943542867    0.7068458135
H        2.1713704942    2.0803710437    0.7275621290
H        0.5156564172    1.6351872982    1.1066109514
22   
torsion grid (120,)
C        0.8386948733   -0.7697507844   -0.1466548364
C        0.6485306092    2.7500989712   -0.7410316883
C        1.4727414963    0.3709848798   -0.4507874361
C       -0.5380575260    3.3801414687   -0.7749232549
C        2.5885667740    0.4199829619   -1.4657322031
C       -0.8141328758    4.4508140986   -1.8058527218
C       -1.6920483336    3.1071000886    0.1595923730
C        1.1050487309    1.6814024629    0.2250366849
H        0.0316265337   -0.7965514107    0.5824724942
H        1.1037117048   -1.7134555526   -0.6188292542
H        1.3916693329    3.0516407313   -1.4795018721
H        2.3058636102    1.0245226180   -2.3354633211
H        2.8510550460   -0.5798583779   -1.8217327157
H        3.4879030154    0.8806080340   -1.0370819943
H       -1.6755060585    4.1803757115   -2.4306360679
H        0.0445273198    4.6164746413   -2.4626275662
H       -1.0640678722    5.4048275091   -1.3232545769
H       -1.9562060863    4.0135873014    0.7194487929
H       -2.5845305978    2.8212408705   -0.4115612380
H       -1.4896959940    2.3135817961    0.8804321035
H        1.9992507504    2.0554513678    0.7480511528
H        0.3526370285    1.4926552304    0.9926772610
22   
torsion grid (135,)
C        0.8495658161   -0.8264448761   -0.3466727648
C        0.5212115826    2.6415997150   -0.8377114050
C        1.5021576998    0.3343186863   -0.4967034023
C       -0.5990435843    3.3816948207   -0.7813335331
C        2.7705849708    0.4389990888   -1.3079683658
C       -0.9160063850    4.3859777606   -1.8659850700
C       -1.6333478481    3.3072961345    0.3162039801
C        1.0031601670    1.6107522831    0.1584943282
H       -0.0631399859   -0.8942211949    0.2415661970
H        1.2037164789   -1.7450245878   -0.8097910912
H        1.1851430505    2.8124418580   -1.6849761045
H        2.6487865503    1.1221561942   -2.1567727931
H        3.0773927149   -0.5337487197   -1.7015710922
H        3.5904011110    0.8378630991   -0.6969268370
H       -1.8725939915    4.1499425143   -2.3505285933
H       -0.1412161016    4.4120998882   -2.6373910422
H       -1.0168377666    5.3965242233   -1.4486208119
H       -1.7177857785    4.2744209244    0.8286740414
H       -2.6234595657    3.0895357667   -0.1043597608
H       -1.4140524452    2.5497606904    1.0703280863
H        1.8337603236    2.0454356666    0.7369906860
H        0.2191844681    1.3644946815    0.8770954634
22   
torsion grid (150,)
C        0.8936824906   -0.8900006541   -0.5250305906
C        0.3944803518    2.5295198352   -0.9182306096
C        1.5123307824    0.2986072064   -0.5269042409
C       -0.6377253954    3.3805697537   -0.7963799638
C        2.8729673746    0.4937324192   -1.1501626306
C       -1.0000610168    4.3277876691   -1.9168165433
C       -1.5164093354    3.4897079249    0.4265791987
C        0.8789421195    1.5231379052    0.1068931523
H       -0.0850882889   -1.0206283375   -0.0683518597
H        1.3431178153   -1.7688734982   -0.9824017769
H        0.9614214811    2.5618847411   -1.8482466949
H        2.8486485430    1.2586045050   -1.9356816897
H        3.2524190970   -0.4318740478   -1.5912830751
H        3.5950473644    0.8395564340   -0.3994092768
H       -2.0296452463    4.1558996738   -2.2574958390
H       -0.3342274846    4.2152881229   -2.7771072360
H       -0.9511402421    5.3720091302   -1.5809347963
H       -1.4471846983    4.4969215752    0.8577739301
H       -2.5703059503    3.3361506174    0.1608345694
H       -1.2565981085    2.7760274363    1.2104660964
H        1.6257476581    2.0026581101    0.7587986410
H        0.0571621702    1.2091880953    0.7551313507
22   
torsion grid (165,)
C        0.9820224777   -0.9696971060   -0.6210779507
C        0.2732760480    2.4239261820   -0.9849210890
C        1.5037907148    0.2619158525   -0.5416201375
C       -0.6522549626    3.3819217726   -0.8158049479
C        2.8925521985    0.5801938986   -1.0396676439
C       -1.0368290842    4.3086081613   -1.9448870970
C       -1.3760606033    3.6279300831    0.4859904472
C        0.7281070672    1.4168510516    0.0586632403
H       -0.0184491484   -1.1865003696   -0.2528581415
H        1.5355136784   -1.7982115997   -1.0579353353
H        0.7394645282    2.3376959364   -1.9658372980
H        2.8750486535    1.3840841648   -1.7854216791
H        3.3725413525   -0.2925726802   -1.4904734175
H        3.5247677120    0.9341837354   -0.2151998678
H       -2.1081014718    4.2269791839   -2.1715416335
H       -0.4784098112    4.0893180001   -2.8593342603
H       -0.8525173404    5.3567753188   -1.6746606443
H       -1.1737419722    4.6431477655    0.8516423449
H       -2.4625714834    3.5579399987    0.3456042338
H       -1.0898349571    2.9277780792    1.2732856228
H        1.3643092538    1.9192693664    0.8029236167
H       -0.1350413688    1.0243378220    0.6051717531
22   
torsion grid (180,)
C        1.0811084782   -1.0394087151   -0.6808313349
C        0.1489639376    2.3206080443   -1.0357966389
C        1.4850776656    0.2314624446   -0.5495374709
C       -0.6523439297    3.3780212528   -0.8304506796
C        2.8683390931    0.6824899632   -0.9508200210
C       -1.0430636770    4.3019011864   -1.9592000437
C       -1.2268969441    3.7344556392    0.5192047101
C        0.5750083643    1.3032248195    0.0120271232
H        0.0826797807   -1.3521377965   -0.3826905264
H        1.7341398556   -1.8066817870   -1.0911897876
H        0.5015271924    2.1362284345   -2.0502221000
H        2.8229286029    1.5008850724   -1.6793368902
H        3.4521215410   -0.1330018487   -1.3862142126
H        3.4134748341    1.0706901172   -0.0807458025
H       -2.1331637201    4.3249953955   -2.0887943743
H       -0.5943208529    3.9961160584   -2.9085358869
H       -0.7304825058    5.3334235486   -1.7495873275
H       -0.9189771512    4.7454152786    0.8164702808
H       -2.3241266698    3.7408446532    0.4826304372
H       -0.9208719948    3.0437161461    1.3075185731
H        1.0955700213    1.8136834543    0.8349367426
H       -0.3091104402    0.8289432559    0.4532053453
