39   
torsion grid (-165,)
C       -1.1868376750    2.1520369841   -1.3843922269
C       -1.0035147875    2.7935903822   -0.1543240811
C       -0.7568288459    0.8265108800   -1.5620806474
C        2.3932123093   -0.3870082657   -1.8087466407
C        2.3988821011   -2.6735526838   -1.0540895711
C       -1.5878165375   -2.7820487276    0.0136323066
C       -0.6818365535   -2.6512098896   -2.2098585374
C       -0.3955188907    2.1345510161    0.9257386382
C        3.6272389655   -0.5912011288   -2.4378510851
C        3.6247955032   -2.8883439148   -1.6736302533
C       -2.5865962954   -3.6458402360   -0.4421747711
C       -1.6748265088   -3.5082238738   -2.6796815950
C        1.7600236874   -1.4224774832   -1.1179369214
C       -0.6208959454   -2.2730152536   -0.8599965595
C       -0.1428612351    0.1683595395   -0.5062928841
C        0.0197557365    0.8216666569    0.7247090289
C        4.2445369524   -1.8431453252   -2.3733206340
C       -2.6338616520   -4.0097690251   -1.7924084540
C        0.7248209953   -1.3424840888    1.1224527570
C        0.4116831642   -1.2451417169   -0.4049776979
N        0.6413231984   -0.0555677928    1.6310795996
O        0.9719095343   -2.3426014095    1.7727625231
O        5.4528770323   -2.1099209543   -2.9717053987
O       -3.5901837658   -4.8566466234   -2.3009022753
H       -1.6702747677    2.6785298405   -2.2024296141
H       -1.3421400293    3.8182835970   -0.0266659995
H       -0.9102833942    0.3184036381   -2.5102976905
H        1.9311799647    0.5927899549   -1.8666518425
H        1.9261540848   -3.4831571533   -0.5068492904
H       -1.5652252544   -2.5214181906    1.0668022811
H        0.0668139505   -2.2814977200   -2.9044792461
H       -0.2621053225    2.6334711494    1.8821134638
H        4.1025121455    0.2279212685   -2.9757528970
H        4.1172564162   -3.8550697948   -1.6252643741
H       -3.3237292276   -4.0387506201    0.2566723569
H       -1.7160591225   -3.8028463804   -3.7241876846
H        0.7182714487    0.1058554724    2.6282080630
H        5.7725744825   -1.3055143887   -3.4101203964
H       -4.1779610884   -5.1368233446   -1.5816047163
39   
torsion grid (-150,)
C       -0.8138584435    2.1204642257   -1.3248637463
C       -0.5013673743    2.7552861540   -0.1177401147
C       -0.4440772556    0.7817852356   -1.5398228552
C        2.7080554844   -0.5229888927   -1.9427371563
C        2.7201003248   -2.7838242399   -1.1141065229
C       -1.3451614759   -2.7498035048   -0.1028014001
C       -0.3566237434   -2.7235902717   -2.2937366076
C        0.1838857455    2.0764667052    0.9031194942
C        3.9300839655   -0.7521306053   -2.5859495726
C        3.9350075092   -3.0240738798   -1.7465645169
C       -2.3723005192   -3.5697504178   -0.5739359069
C       -1.3786463325   -3.5374945740   -2.7799264254
C        2.0851023426   -1.5329337668   -1.2069306959
C       -0.3191960862   -2.3172864349   -0.9515532329
C        0.2394919759    0.1042401847   -0.5410746380
C        0.5352114150    0.7512435441    0.6694977822
C        4.5451018531   -2.0035480439   -2.4897012442
C       -2.3923533235   -3.9656234078   -1.9164025426
C        1.0786295677   -1.4485648550    1.0392487133
C        0.7451919787   -1.3320102290   -0.4822924803
N        1.2329967038   -0.1437731163    1.5073662516
O        1.0809272807   -2.4520195138    1.7269875652
O        5.7428674795   -2.2930924443   -3.0981836595
O       -3.3757070442   -4.7727141079   -2.4380712706
H       -1.3540964648    2.6625103643   -2.0958530980
H       -0.7960901195    3.7895923877    0.0385458823
H       -0.7014709440    0.2774423900   -2.4674584223
H        2.2458347570    0.4552069602   -2.0246013090
H        2.2511058120   -3.5758733565   -0.5374378553
H       -1.3470208924   -2.4607996691    0.9426890254
H        0.4311712950   -2.4086462899   -2.9714913808
H        0.4234188651    2.5717643434    1.8404785313
H        4.3984245251    0.0467198832   -3.1592718426
H        4.4252066730   -3.9905600829   -1.6756219565
H       -3.1547177835   -3.9030851762    0.1064715764
H       -1.4006418067   -3.8530208462   -3.8188914112
H        1.2878233633   -0.0048626506    2.5107611439
H        6.0569154580   -1.5048719766   -3.5689227174
H       -4.0008966719   -5.0035324219   -1.7329272677
39   
torsion grid (-135,)
C       -1.1613825478    2.1247549299   -1.1961514450
C       -0.7988483248    2.7754771644   -0.0117125348
C       -0.7685844650    0.7947388883   -1.4253222997
C        2.4224818887   -0.4587003142   -1.9485885186
C        2.5985526895   -2.6355306711   -0.9371190522
C       -1.6384783841   -2.5934258955   -0.1240712958
C       -0.4295044642   -2.8498087306   -2.1849088116
C       -0.0364233018    2.1234368336    0.9719366741
C        3.6542231777   -0.6542624858   -2.5837047205
C        3.8252714128   -2.8427089899   -1.5594165627
C       -2.6395694993   -3.4387104420   -0.6019557951
C       -1.4257252547   -3.6927681768   -2.6790255408
C        1.8768486434   -1.4438810477   -1.1239746657
C       -0.5130553916   -2.2899754602   -0.9024459319
C       -0.0115971661    0.1445408802   -0.4623311656
C        0.3370944338    0.8068610242    0.7268977468
C        4.3576269731   -1.8468142500   -2.3901122938
C       -2.5353195729   -3.9931990063   -1.8841110561
C        0.8291234748   -1.3782489749    1.1130951832
C        0.5237256389   -1.2836038049   -0.4176131836
N        1.1234532222   -0.0622238040    1.5229448923
O        0.6203513068   -2.3086708723    1.8643739053
O        5.5705335148   -2.1001422816   -2.9841550718
O       -3.4893222969   -4.8328872109   -2.4088181255
H       -1.7603809903    2.6467467103   -1.9369891234
H       -1.1133577493    3.8021858114    0.1559813038
H       -1.0669417594    0.2740864971   -2.3316060577
H        1.8913755105    0.4746589448   -2.1041298603
H        2.1862447675   -3.4135993967   -0.3000586679
H       -1.7407541872   -2.1743817819    0.8713646474
H        0.4277712114   -2.6306608316   -2.8132533947
H        0.2438045474    2.6325971649    1.8903783379
H        4.0621547731    0.1248457126   -3.2261855881
H        4.3823252566   -3.7637031252   -1.4149670158
H       -3.5004661209   -3.6677302850    0.0246785826
H       -1.3535846967   -4.1257026775   -3.6724256650
H        1.1341788023    0.0696621583    2.5306145007
H        5.8255615076   -1.3338281665   -3.5219882591
H       -4.1889479512   -4.9657078101   -1.7498652052
39   
torsion grid (-120,)
C       -1.0614945896    2.1310936423   -1.1001634347
C       -0.6287377457    2.7575286370    0.0735646928
C       -0.7010028577    0.7990438739   -1.3693392002
C        2.4603037349   -0.5212608795   -2.0502534032
C        2.7320615223   -2.6177656836   -0.9028606780
C       -1.6547309128   -2.4532935525   -0.2843296619
C       -0.2704803517   -2.9988662577   -2.1707611159
C        0.1748417428    2.0811825495    1.0075516703
C        3.6931815694   -0.7084022866   -2.6849030734
C        3.9617424107   -2.8165705808   -1.5232740528
C       -2.6572912866   -3.2906223107   -0.7698004187
C       -1.2673751890   -3.8376873109   -2.6727900340
C        1.9622622960   -1.4701249658   -1.1562043531
C       -0.4403478646   -2.2976063716   -0.9695063629
C        0.0968663748    0.1255557829   -0.4570736572
C        0.5180762317    0.7648268620    0.7237841024
C        4.4468574458   -1.8563962283   -2.4215127168
C       -2.4644480439   -3.9896338666   -1.9690468776
C        0.8733210309   -1.4235364796    1.0841946181
C        0.6076985405   -1.3179835857   -0.4572792163
N        1.3421790223   -0.1302301981    1.4584690227
O        0.4216818092   -2.2418050316    1.8547304238
O        5.6650953250   -2.0980726427   -3.0095274169
O       -3.4160826938   -4.8292685157   -2.4979573086
H       -1.6907860335    2.6728620218   -1.8005995152
H       -0.9197297320    3.7856226468    0.2724890998
H       -1.0558002572    0.2953297114   -2.2647689925
H        1.8911223633    0.3790336977   -2.2578880252
H        2.3556279136   -3.3739894650   -0.2180663132
H       -1.8263379965   -1.9162385694    0.6426652447
H        0.6515478487   -2.8938275896   -2.7323567896
H        0.5089400113    2.5725275587    1.9176004792
H        4.0643150707    0.0430692586   -3.3804095440
H        4.5562835754   -3.7036587020   -1.3259590365
H       -3.5883569009   -3.4003770037   -0.2153682725
H       -1.1284067089   -4.3790207642   -3.6039681819
H        1.3516953212   -0.0051213921    2.4686599063
H        5.8844914550   -1.3587353020   -3.5984004731
H       -4.1814801642   -4.8528793388   -1.9021866626
39   
torsion grid (-105,)
C       -1.0231757769    2.1283214951   -1.0050067364
C       -0.5393223302    2.7195743146    0.1667960764
C       -0.6941196397    0.7977184353   -1.3197946477
C        2.4153092843   -0.6032839799   -2.1594379613
C        2.7945786379   -2.5977107352   -0.8727758863
C       -1.7220758325   -2.3471147109   -0.4828534366
C       -0.1967213843   -3.1447132913   -2.1583349073
C        0.2875597624    2.0100060495    1.0553263293
C        3.6479350044   -0.7795262465   -2.7968175668
C        4.0256405989   -2.7855325152   -1.4950403646
C       -2.7197112995   -3.1794350691   -0.9855044497
C       -1.1870207120   -3.9822988270   -2.6758167638
C        1.9711582335   -1.5064353405   -1.1924071162
C       -0.4397254679   -2.3176986452   -1.0535901635
C        0.1291553767    0.0925931280   -0.4556300431
C        0.6038402189    0.6982826109    0.7259340927
C        4.4571055784   -1.8708264442   -2.4646936752
C       -2.4529638251   -4.0051787479   -2.0862348938
C        0.8214955220   -1.4833396940    1.0514558980
C        0.6140447298   -1.3670293029   -0.5042596404
N        1.4496861952   -0.2299880945    1.3993569642
O        0.1454151859   -2.1438344276    1.8058820458
O        5.6792561057   -2.0976675009   -3.0509719424
O       -3.3966407639   -4.8465371204   -2.6264542760
H       -1.6690674577    2.6961079909   -1.6687857996
H       -0.8075867590    3.7465677166    0.4004781169
H       -1.0914070691    0.3213672411   -2.2122552833
H        1.8038367927    0.2544814683   -2.4205534281
H        2.4614491030   -3.3223247117   -0.1325819790
H       -1.9500407913   -1.7107876575    0.3658269807
H        0.7777756646   -3.1396955143   -2.6340472077
H        0.6604840768    2.4738480511    1.9646704698
H        3.9770694938   -0.0626968513   -3.5478006241
H        4.6620725243   -3.6289312183   -1.2442365355
H       -3.7047697357   -3.1870261820   -0.5207910519
H       -0.9902315037   -4.6198825107   -3.5326766841
H        1.4691830601   -0.1100270301    2.4116862290
H        5.8582759715   -1.3920007602   -3.6924499166
H       -4.2157794807   -4.7729433172   -2.1117390667
39   
torsion grid (-90,)
C       -1.0513357146    2.1099296674   -0.9451910593
C       -0.5344938663    2.6974276532    0.2138964796
C       -0.7244238302    0.7826121889   -1.2787853218
C        2.3969873332   -0.6414937117   -2.1891820645
C        2.8104421218   -2.5975482724   -0.8578219894
C       -1.7477163997   -2.3122768951   -0.5522716020
C       -0.1774424998   -3.1960329908   -2.1411432839
C        0.3277963795    1.9910277512    1.0718654370
C        3.6287632149   -0.8147101819   -2.8288677365
C        4.0411194051   -2.7841196832   -1.4814624467
C       -2.7432366867   -3.1403290208   -1.0666866188
C       -1.1651420191   -4.0297329571   -2.6687755553
C        1.9699589272   -1.5267779408   -1.1984065360
C       -0.4431121641   -2.3277944582   -1.0725895925
C        0.1350392944    0.0809344260   -0.4487994497
C        0.6473160374    0.6864606983    0.7220317628
C        4.4544138560   -1.8866089676   -2.4747665659
C       -2.4530967814   -4.0074303363   -2.1286347030
C        0.7924088605   -1.4749858053    1.0572331457
C        0.6150528692   -1.3888722474   -0.5134447356
N        1.5382727117   -0.2423825494    1.3360520567
O       -0.0442712775   -1.9496388754    1.7883098813
O        5.6771627195   -2.1101382550   -3.0617065463
O       -3.3936355240   -4.8457937303   -2.6785761511
H       -1.7214880059    2.6773065895   -1.5848787630
H       -0.8036476453    3.7207749289    0.4621625676
H       -1.1495952224    0.3090109482   -2.1596943782
H        1.7711346301    0.2005880719   -2.4673914988
H        2.4918326874   -3.3079958350   -0.0972185542
H       -1.9952075446   -1.6436427566    0.2647651911
H        0.8131684782   -3.2257444871   -2.5809393529
H        0.7265682898    2.4530298148    1.9710838699
H        3.9443956567   -0.1111827315   -3.5980455878
H        4.6908551303   -3.6120239633   -1.2136094517
H       -3.7455178063   -3.1110224741   -0.6412559795
H       -0.9498613233   -4.6980688475   -3.4972882383
H        1.6089271880   -0.1021527280    2.3450790762
H        5.8427027277   -1.4174686228   -3.7207066698
H       -4.2304644610   -4.7376296750   -2.1996329148
39   
torsion grid (-75,)
C       -1.0282923739    2.1185799337   -0.8292257322
C       -0.4878919277    2.6785936902    0.3316902062
C       -0.7114766367    0.7981701368   -1.2029627302
C        2.3460095194   -0.7280018749   -2.2689275111
C        2.8757859783   -2.5428045719   -0.7885884685
C       -1.7663727254   -2.2362998811   -0.6589561161
C       -0.1318112519   -3.2751889122   -2.0806054289
C        0.3933013671    1.9518941471    1.1546115083
C        3.5692816621   -0.9020389416   -2.9235453572
C        4.0992928844   -2.7303152103   -1.4266418049
C       -2.7562591287   -3.0665957558   -1.1812721365
C       -1.1122516187   -4.1129940749   -2.6138165858
C        1.9817636774   -1.5423321143   -1.1949607084
C       -0.4333142714   -2.3244647135   -1.0936613884
C        0.1690873466    0.0775167058   -0.4142242532
C        0.7064340927    0.6592745112    0.7641024159
C        4.4497706772   -1.9041277445   -2.5021171537
C       -2.4304874357   -4.0125866248   -2.1620230864
C        0.7725533859   -1.4949764864    1.0788754644
C        0.6296202157   -1.4072048494   -0.5126266203
N        1.6212535451   -0.2905935346    1.3045760025
O       -0.1971492618   -1.7963845565    1.7335834776
O        5.6681271472   -2.1243201475   -3.1001608499
O       -3.3633142919   -4.8570401022   -2.7155152476
H       -1.7099100034    2.7020348378   -1.4418411869
H       -0.7512622956    3.6959015167    0.6093076404
H       -1.1594303029    0.3488479604   -2.0852489418
H        1.6752990998    0.0584155592   -2.6011987782
H        2.6081423578   -3.1965391610    0.0399944881
H       -2.0403430063   -1.5108640909    0.0987302559
H        0.8827098982   -3.3659773842   -2.4521095212
H        0.8114002859    2.3917788689    2.0560931740
H        3.8359695676   -0.2541065115   -3.7573673171
H        4.7914744666   -3.5034944457   -1.1066274175
H       -3.7812801489   -2.9785189964   -0.8234183806
H       -0.8687446148   -4.8440526350   -3.3791716617
H        1.7633318681   -0.1440759630    2.3068665203
H        5.7878660969   -1.4828146625   -3.8181732288
H       -4.2251856808   -4.6878230974   -2.3032765842
39   
torsion grid (75,)
C       -0.8415017066    2.2203159025   -1.5848999007
C       -1.4693020489    2.4886997374   -0.3654284824
C       -0.2275009261    0.9738273154   -1.8148152995
C        2.6584620188   -0.4763839632   -1.3463566774
C        1.9766850587   -2.5415014727   -2.3695449490
C       -0.5094675126   -3.7564706621   -0.4932962524
C       -1.5716719913   -2.3361027051   -2.1108093356
C       -1.5191389778    1.5276008061    0.6621118808
C        3.8698857676   -0.5310378556   -2.0329394376
C        3.1850106579   -2.6079356638   -3.0646137772
C       -1.3530737225   -4.8103987472   -0.8482974869
C       -2.4227880864   -3.3777225892   -2.4808550821
C        1.6888643887   -1.4824281142   -1.4952094850
C       -0.6044076730   -2.5066837852   -1.1142592025
C       -0.2848388555    0.0115668821   -0.8211652527
C       -0.9228160698    0.3013964908    0.4132155643
C        4.1395420013   -1.6020308403   -2.8950515593
C       -2.3157158238   -4.6207265043   -1.8479468876
C        0.5224079315   -1.2713649189    0.8436142407
C        0.3703565083   -1.3995054278   -0.7446287146
N       -0.8808107573   -0.8980848505    1.1820592834
O        1.5117108025   -0.7430075716    1.2931964139
O        5.3150947509   -1.7085696578   -3.5995757894
O       -3.1786847807   -5.6147194250   -2.2455178790
H       -0.8155116567    2.9837093425   -2.3574642518
H       -1.9304459881    3.4592888541   -0.2022964337
H        0.2919359448    0.7752485517   -2.7484260105
H        2.4696086229    0.3631101239   -0.6870018961
H        1.2474338669   -3.3286626114   -2.5245633939
H        0.2423614388   -3.9189105887    0.2771426673
H       -1.6695285726   -1.3740056502   -2.6043622421
H       -2.0096654419    1.7414039958    1.6079732842
H        4.6052732238    0.2607734479   -1.8962467588
H        3.3968746135   -3.4301575351   -3.7417674213
H       -1.2629329469   -5.7736744891   -0.3483109030
H       -3.1751511189   -3.2424418145   -3.2523052358
H       -0.9594460759   -0.7021854719    2.1828501947
H        5.8832756596   -0.9532585635   -3.3803179594
H       -3.0026392163   -6.4138938984   -1.7243617436
39   
torsion grid (90,)
C       -0.8825141646    2.1945562337   -1.6449790692
C       -1.4923650965    2.4853459487   -0.4205166097
C       -0.2601237454    0.9504243091   -1.8547134638
C        2.6750316727   -0.5039987729   -1.2889540463
C        1.9573747583   -2.5103450214   -2.3984063493
C       -0.5017382037   -3.7553337169   -0.5107367692
C       -1.6070816875   -2.3170822911   -2.0845666342
C       -1.5102929744    1.5488061197    0.6286349597
C        3.8902243219   -0.5554474362   -1.9686419663
C        3.1691048497   -2.5737206117   -3.0887945772
C       -1.3488452433   -4.8079710783   -0.8612706876
C       -2.4608700938   -3.3580744925   -2.4499838121
C        1.6863100909   -1.4819908941   -1.4846762736
C       -0.6165785521   -2.4973634044   -1.1128278593
C       -0.2838163485    0.0138080961   -0.8336365701
C       -0.9001058974    0.3232541669    0.4004625725
C        4.1431558876   -1.5961733921   -2.8723751279
C       -2.3341112272   -4.6091274338   -1.8367117334
C        0.5144228088   -1.2950093693    0.8309512542
C        0.3621157464   -1.3892934793   -0.7420203365
N       -0.8201031397   -0.8349397400    1.2300460275
O        1.5431801898   -0.9618930526    1.3703928732
O        5.3214739084   -1.6989432027   -3.5731146939
O       -3.2008681579   -5.6013127212   -2.2291477977
H       -0.8772310912    2.9399349430   -2.4352710136
H       -1.9619705177    3.4541494094   -0.2715696200
H        0.2448259164    0.7320288759   -2.7919296713
H        2.4971202798    0.3121852417   -0.5971895011
H        1.2133069188   -3.2759289504   -2.5879237796
H        0.2697380414   -3.9264824001    0.2377130395
H       -1.7219023342   -1.3489060085   -2.5619354340
H       -1.9859430212    1.7795274304    1.5781476884
H        4.6412946812    0.2140006106   -1.7947413731
H        3.3689760066   -3.3723933540   -3.7970596286
H       -1.2428316211   -5.7776796477   -0.3771584609
H       -3.2307858871   -3.2160256465   -3.2026599427
H       -0.8176025333   -0.5972132169    2.2233165087
H        5.9047100671   -0.9668396880   -3.3177307028
H       -3.0108235279   -6.4067413966   -1.7226872144
39   
torsion grid (105,)
C       -0.9089166827    2.1023834237   -1.7766991595
C       -1.4955881629    2.3972017939   -0.5416340537
C       -0.2599950293    0.8714148525   -1.9809400403
C        2.7769414237   -0.5596824542   -1.3044934768
C        1.9980139087   -2.4029562789   -2.6337592655
C       -0.2875490888   -3.8466636404   -0.7147869309
C       -1.5925855775   -2.3790746246   -2.1006500764
C       -1.4594550793    1.4789761888    0.5227472636
C        3.9823146683   -0.5559630339   -2.0029456506
C        3.1993268569   -2.4092504478   -3.3458426414
C       -1.1119840705   -4.9193197015   -1.0574360266
C       -2.4240799287   -3.4419015713   -2.4558225501
C        1.7646814027   -1.4866563455   -1.5991935500
C       -0.5140054499   -2.5636644303   -1.2287932226
C       -0.2272671622   -0.0456744827   -0.9417903063
C       -0.8158363966    0.2690587823    0.3000573031
C        4.1987145853   -1.4868244813   -3.0282645158
C       -2.1864430357   -4.7175225067   -1.9332129841
C        0.5893976589   -1.3994512073    0.7151139408
C        0.4396563291   -1.4305855999   -0.8521880505
N       -0.6684091133   -0.8568806536    1.1603626244
O        1.6445367738   -1.3095111848    1.2998837042
O        5.3664169862   -1.5316922221   -3.7527702746
O       -3.0357415187   -5.7296589589   -2.3120608131
H       -0.9431347576    2.8343901510   -2.5786749587
H       -1.9883304269    3.3549669524   -0.3963173222
H        0.2235325646    0.6470379164   -2.9280594414
H        2.6252782473    0.1742832858   -0.5201025769
H        1.2340544374   -3.1247767445   -2.9004366386
H        0.5549651969   -4.0194470241   -0.0484860973
H       -1.7947831472   -1.3928336647   -2.5063220376
H       -1.9160974516    1.7135550976    1.4806357829
H        4.7536202982    0.1703513981   -1.7500364072
H        3.3717100671   -3.1216601683   -4.1472375273
H       -0.9181472667   -5.9082882345   -0.6447669555
H       -3.2617824389   -3.2979576299   -3.1318274041
H       -0.6390385640   -0.6203355143    2.1516483360
H        5.9683999103   -0.8462391257   -3.4224579528
H       -2.7645861023   -6.5517230564   -1.8737903103
39   
torsion grid (120,)
C       -0.9613175116    2.1313087983   -1.8477395244
C       -1.5327832816    2.5140669061   -0.6296288064
C       -0.3505917454    0.8719062311   -1.9826824641
C        2.7128454023   -0.6962267394   -1.0161039073
C        1.8036968187   -2.2989769060   -2.5586350462
C       -0.4013569905   -3.8055322831   -0.6569063809
C       -1.8260100669   -2.2994239648   -1.8769782697
C       -1.5166159921    1.6573999499    0.4847871866
C        3.9301572788   -0.7279135518   -1.6939502995
C        3.0155842787   -2.3367904272   -3.2509127009
C       -1.2375427111   -4.8736801863   -0.9812901118
C       -2.6714856354   -3.3581623434   -2.2131650367
C        1.6303937304   -1.4874529665   -1.4292101899
C       -0.6812346872   -2.5054208303   -1.1000416102
C       -0.3348472722    0.0171170410   -0.8912767052
C       -0.9058603167    0.4192022992    0.3305663480
C        4.0868020495   -1.5528044689   -2.8159218427
C       -2.3779231349   -4.6496507738   -1.7643740078
C        0.3771584091   -1.3584137026    0.8393475613
C        0.2839230976   -1.3752097425   -0.7267801160
N       -0.7798263097   -0.6470223158    1.2594058233
O        1.3765559891   -1.5372910446    1.5009844473
O        5.2631530761   -1.6252460255   -3.5241646046
O       -3.2405718124   -5.6583102099   -2.1207435625
H       -0.9785151868    2.8164455064   -2.6905820186
H       -1.9966462760    3.4926156757   -0.5376624166
H        0.1188006638    0.5772270769   -2.9176858475
H        2.6112463950   -0.0449276488   -0.1544943031
H        0.9832421277   -2.9136313579   -2.9133020720
H        0.4896571972   -3.9901555691   -0.0617419927
H       -2.0688868870   -1.3006138196   -2.2251912047
H       -1.9626628292    1.9587772298    1.4289444003
H        4.7583849560   -0.1102171866   -1.3492858795
H        3.1424979618   -2.9681144160   -4.1254328926
H       -1.0021927250   -5.8764191060   -0.6274257003
H       -3.5594374079   -3.1983567441   -2.8177811292
H       -0.7526281324   -0.3899394742    2.2436986709
H        5.9181011473   -1.0433849510   -3.1072635079
H       -2.9250818656   -6.4937507246   -1.7413709304
39   
torsion grid (135,)
C       -1.0204708288    2.2618950693   -1.8605434211
C       -1.5834979265    2.8066250406   -0.7012901949
C       -0.4870714007    0.9614120886   -1.8483906953
C        2.5060786193   -0.8124100296   -0.4054554099
C        1.5084872616   -2.1369664020   -2.1445077960
C       -0.7594219784   -3.5860459638   -0.2605995073
C       -2.1661092695   -2.0553386603   -1.4727997510
C       -1.6331875889    2.0734617205    0.4962910207
C        3.7539218056   -0.9476678896   -1.0144743008
C        2.7485551772   -2.2756706665   -2.7684640991
C       -1.6259368581   -4.6350757297   -0.5648030391
C       -3.0414252620   -3.0967088038   -1.7874286786
C        1.3635566069   -1.4104597267   -0.9538191932
C       -1.0137872091   -2.2833462119   -0.7129362043
C       -0.5339868621    0.2285181255   -0.6720171582
C       -1.0940517018    0.7923409448    0.4868484086
C        3.8794524977   -1.6822373985   -2.2002330691
C       -2.7722572593   -4.3915143511   -1.3338806159
C       -0.0281001127   -1.0845953753    1.2082343039
C       -0.0168161840   -1.1728158055   -0.3531284861
N       -1.0445127812   -0.1662471748    1.5276096482
O        0.8138198571   -1.5041601552    1.9765216319
O        5.0821937986   -1.8507436388   -2.8450604541
O       -3.6623471944   -5.3828965354   -1.6709068167
H       -0.9856345072    2.8519320203   -2.7719870500
H       -1.9887380719    3.8148171770   -0.7225381130
H       -0.0283128734    0.5400415687   -2.7390777508
H        2.4331246307   -0.2376814166    0.5114252345
H        0.6411358155   -2.6080562138   -2.5959613772
H        0.1316571001   -3.7831988285    0.3293502334
H       -2.3900539262   -1.0545353532   -1.8276517250
H       -2.0734722968    2.4989169087    1.3942823869
H        4.6296305597   -0.4820410202   -0.5643429303
H        2.8540621492   -2.8413319083   -3.6895553201
H       -1.4098146575   -5.6401548852   -0.2053251261
H       -3.9338672874   -2.9202004598   -2.3806308234
H       -1.0473165548    0.1533559213    2.4921704435
H        5.7762614071   -1.3981159985   -2.3403448152
H       -3.3607252459   -6.2223670905   -1.2891312936
39   
torsion grid (150,)
C       -1.1050333893    2.1427680337   -1.8946154801
C       -1.6045723618    2.7086259913   -0.7164964154
C       -0.5751687150    0.8412525952   -1.8895378489
C        2.4941161407   -0.9798760269   -0.3627228310
C        1.4908679054   -2.1094776075   -2.2324148256
C       -0.7210340629   -3.7040946866   -0.3943743535
C       -2.2181147177   -2.1470135021   -1.4572493418
C       -1.5886050430    1.9953259360    0.4932303341
C        3.7484580737   -1.0941236219   -0.9645102963
C        2.7363589251   -2.2258900085   -2.8483960718
C       -1.5797604572   -4.7552943721   -0.7105388537
C       -3.0865996280   -3.1912189592   -1.7821769014
C        1.3468135844   -1.4896118915   -0.9824972169
C       -1.0240446497   -2.3864784666   -0.7678893905
C       -0.5629187417    0.1261071303   -0.7012179362
C       -1.0566799176    0.7104061404    0.4757249034
C        3.8732747819   -1.7179756038   -2.2115399177
C       -2.7679408819   -4.5001696269   -1.4095266838
C       -0.0453924325   -1.2275604569    1.1728377972
C       -0.0401641280   -1.2697158234   -0.3883967249
N       -0.9350294545   -0.2149816522    1.5352571447
O        0.6617810442   -1.8484270307    1.9440095335
O        5.0812540527   -1.8612659977   -2.8525984523
O       -3.6526289440   -5.4943420570   -1.7526622037
H       -1.1183197352    2.7167881054   -2.8167541111
H       -2.0079543190    3.7176459274   -0.7322328019
H       -0.1666708937    0.4045367638   -2.7970664335
H        2.4224804177   -0.4962692381    0.6058883878
H        0.6176580124   -2.5162176233   -2.7333676751
H        0.1973170357   -3.9071253047    0.1488656701
H       -2.4811944530   -1.1357908095   -1.7497162303
H       -1.9754062081    2.4380081524    1.4073914608
H        4.6292367819   -0.6996304422   -0.4597451559
H        2.8430714297   -2.7093376759   -3.8150446316
H       -1.3262615008   -5.7717540622   -0.4126307881
H       -4.0111352324   -3.0053959100   -2.3208708552
H       -0.9338988516    0.0783852665    2.5064923998
H        5.7792933160   -1.4770370619   -2.2990082282
H       -3.3142811439   -6.3441486742   -1.4289406424
39   
torsion grid (165,)
C       -1.1075045075    2.1642661876   -1.9846196023
C       -1.5279599093    2.7959081955   -0.8089371858
C       -0.5935621659    0.8573910592   -1.9436413978
C        2.5372506377   -1.0343320136   -0.2685984691
C        1.5233922114   -1.9620272763   -2.2410025376
C       -0.6593254835   -3.6348716208   -0.4472544575
C       -2.2336660954   -2.0575600130   -1.3574403657
C       -1.4429068399    2.1473837789    0.4332113758
C        3.7995319549   -1.1687761648   -0.8517672185
C        2.7749775101   -2.0979318734   -2.8380111344
C       -1.5242310974   -4.6834377402   -0.7534064974
C       -3.1093833488   -3.0996888476   -1.6707301897
C        1.3812910539   -1.4295705055   -0.9505142640
C       -0.9968504330   -2.3076698215   -0.7515944225
C       -0.5172028658    0.2015705538   -0.7236205329
C       -0.9292567862    0.8543604314    0.4482153593
C        3.9211355917   -1.6998243554   -2.1405726541
C       -2.7547492591   -4.4175533879   -1.3706463100
C       -0.0188272140   -1.1371673553    1.1865353609
C       -0.0113842496   -1.1911260697   -0.3750590722
N       -0.7300094420   -0.0036556048    1.5440846856
O        0.5142896594   -1.9122557790    1.9610950975
O        5.1345364274   -1.8589757805   -2.7672970617
O       -3.6464750670   -5.4101721520   -1.7008823338
H       -1.1727744465    2.6896983428   -2.9331218446
H       -1.9220252814    3.8077216422   -0.8527631050
H       -0.2533806486    0.3682849429   -2.8524474756
H        2.4677614234   -0.6284442359    0.7354120644
H        0.6421552796   -2.2880160447   -2.7858020775
H        0.2881050952   -3.8458143649    0.0386196254
H       -2.5260638135   -1.0400853332   -1.5947029228
H       -1.7630207426    2.6432165008    1.3459042019
H        4.6872391637   -0.8640645050   -0.2992347965
H        2.8809181390   -2.5138447491   -3.8356814392
H       -1.2428744270   -5.7072450769   -0.5106388881
H       -4.0666139192   -2.9046055420   -2.1452143071
H       -0.8024215600    0.2768322643    2.5146684256
H        5.8384965084   -1.5529214563   -2.1738741579
H       -3.2805398868   -6.2664778202   -1.4283860310
39   
torsion grid (180,)
C       -1.2270662441    2.0988055850   -2.0211469181
C       -1.5441059611    2.7827439744   -0.8422045384
C       -0.7248540076    0.7882330245   -1.9677457883
C        2.5024049328   -1.0923305183   -0.2074992740
C        1.5168477414   -1.9009162961   -2.2457332501
C       -0.6331568837   -3.6671240062   -0.5249261679
C       -2.2881299799   -2.0937253940   -1.2854173857
C       -1.3586571478    2.1839903339    0.4134104193
C        3.7751928416   -1.2156745247   -0.7716735202
C        2.7781461043   -2.0258989059   -2.8226422564
C       -1.4895154052   -4.7232981328   -0.8286700407
C       -3.1558641149   -3.1434988339   -1.5951658512
C        1.3558982376   -1.4315266476   -0.9326761469
C       -1.0145761946   -2.3372239639   -0.7569382285
C       -0.5567923999    0.1777135353   -0.7331011082
C       -0.8618610403    0.8840409564    0.4396552202
C        3.9159133344   -1.6807683468   -2.0831745548
C       -2.7567223472   -4.4632326869   -1.3689417944
C       -0.0449570328   -1.1501691659    1.1913126125
C       -0.0481932232   -1.2109544825   -0.3716084405
N       -0.5525074208    0.0834991865    1.5511512350
O        0.2997802741   -2.0253527560    1.9666789086
O        5.1390772838   -1.8264916700   -2.6937652287
O       -3.6424565796   -5.4634809943   -1.6929458613
H       -1.3675261042    2.5848966463   -2.9823792664
H       -1.9323565380    3.7963685545   -0.8948877478
H       -0.4718997470    0.2580493907   -2.8817959351
H        2.4190245171   -0.7384819151    0.8153506718
H        0.6425046314   -2.1885773491   -2.8224637733
H        0.3415646151   -3.8756639764   -0.0965721771
H       -2.6175554473   -1.0754930356   -1.4630768438
H       -1.5911103969    2.7220275189    1.3287086742
H        4.6552990291   -0.9545326132   -0.1857927408
H        2.8992536476   -2.3933133549   -3.8374718743
H       -1.1730914642   -5.7487949714   -0.6428251265
H       -4.1414108774   -2.9526635507   -2.0095969610
H       -0.7079912922    0.3323504717    2.5201935711
H        5.8354985052   -1.5602793015   -2.0728564678
H       -3.2447054031   -6.3204297595   -1.4719514140
