24   
torsion grid (-165,)
C        0.9135421495   -1.5813238616    0.2965502602
C       -0.7014532632   -0.0910491404   -0.8733333951
C        0.5542707544   -0.9534823469   -1.0563881607
C        0.2191871425   -2.0848548717   -2.0410317713
C        1.7234942686   -0.1045456250   -1.5820397000
C       -2.4304594139   -0.0187633583    2.3254303254
O        1.1751862292   -0.5637453894    1.3084229331
O       -0.5179548845    0.9469041379    0.1385891557
O       -1.1280111799   -0.4544693844    2.2054938008
F       -3.1408567479   -0.3700164943    1.2056161759
F       -2.9883965776   -0.6710662287    3.3705598114
P        0.0563740591    0.5448556789    1.5889975133
S        0.5508093403    2.0309813232    2.6833885625
H        0.1133029460   -2.2324697520    0.6627258884
H        1.8400164610   -2.1545898982    0.2341794260
H       -0.9408345727    0.4554821896   -1.7872608672
H       -1.5634586197   -0.6992596801   -0.5866492486
H       -0.0680727797   -1.6765577598   -3.0155264122
H       -0.6057634256   -2.7085541932   -1.6795609661
H        1.0890415534   -2.7310522039   -2.1979406337
H        1.4728210623    0.3312620687   -2.5546773842
H        2.6193413746   -0.7212109130   -1.7090725027
H        1.9698421233    0.7116437492   -0.8991327862
H       -2.5226319909    1.0598655899    2.4725705160
24   
torsion grid (-150,)
C        0.8840413174   -1.5836949175    0.3057515047
C       -0.7061352603   -0.0540253161   -0.8405751924
C        0.5342919161   -0.9336982167   -1.0384446362
C        0.1752738676   -2.0455997863   -2.0368664908
C        1.7169390738   -0.0992758015   -1.5572791666
C       -2.4031367125   -0.0845913447    2.2339233517
O        1.1985827329   -0.5786910801    1.3122782906
O       -0.5260229681    0.9508367774    0.2077966972
O       -1.0681018331   -0.4074973358    2.3235014745
F       -2.9925527646   -0.8531429861    1.2588631685
F       -2.9973469803   -0.4108192537    3.4038946148
P        0.1115625929    0.5508515400    1.6355371864
S        0.6921249408    2.0343929704    2.6874641854
H        0.0625695491   -2.2042630052    0.6790678541
H        1.7857327947   -2.1937227560    0.2298957108
H       -0.9236100111    0.5266820390   -1.7388387406
H       -1.5798741386   -0.6586670653   -0.5862565170
H       -0.1213361411   -1.6193525562   -3.0008608530
H       -0.6503188276   -2.6677187476   -1.6742026733
H        1.0373448723   -2.6964216514   -2.2155806361
H        1.4754445972    0.3409975159   -2.5302215160
H        2.6052649080   -0.7271833562   -1.6818487038
H        1.9723015307    0.7123294054   -0.8722196393
H       -2.5937030478    0.9662585651    2.0051312666
24   
torsion grid (-135,)
C        0.8487543852   -1.5679185904    0.3255890131
C       -0.7051897548   -0.0013938413   -0.8202986401
C        0.5117421868   -0.9127095487   -1.0193774736
C        0.1210631118   -2.0162906982   -2.0151115022
C        1.7136484650   -0.1093336841   -1.5432307182
C       -2.3673725560   -0.1739154330    2.1543458188
O        1.2113183086   -0.5668512149    1.3174938685
O       -0.5167287333    0.9833873080    0.2470722386
O       -1.0260404007   -0.3139942015    2.4134925550
F       -2.7799654487   -1.1969136974    1.3295096160
F       -3.0438637776   -0.3120193823    3.3163373865
P        0.1568623797    0.5893927498    1.6612126454
S        0.8196918668    2.0647568329    2.6733986342
H        0.0083483137   -2.1558101939    0.7103643415
H        1.7257263208   -2.2124467544    0.2448570873
H       -0.8960398855    0.5993106681   -1.7114201017
H       -1.5966492891   -0.5888516288   -0.5883463186
H       -0.1683002330   -1.5844800893   -2.9788582864
H       -0.7180412574   -2.6173660175   -1.6480990228
H        0.9663808043   -2.6881868101   -2.1956456651
H        1.4806347915    0.3339991586   -2.5168435776
H        2.5857134105   -0.7595362968   -1.6681596927
H        1.9916042753    0.6971999406   -0.8609842281
H       -2.6339612752    0.7739550613    1.6826125625
24   
torsion grid (-120,)
C        0.7969760672   -1.5619833510    0.3377444140
C       -0.7080852618    0.0348512093   -0.8311516392
C        0.4921171866   -0.9013948134   -1.0119282240
C        0.0924161229   -1.9972921458   -2.0127751715
C        1.7179940781   -0.1242959095   -1.5204242330
C       -2.3328013188   -0.2316424414    2.1399155379
O        1.1842645981   -0.5679003832    1.3256761606
O       -0.5359797712    0.9965341210    0.2600150386
O       -1.0146850198   -0.1703130740    2.5104681281
F       -2.5495497970   -1.3574949222    1.3698225116
F       -3.0775843537   -0.3744325439    3.2573632107
P        0.1763530568    0.6321749845    1.6629193318
S        0.9316719604    2.1103897224    2.6038012775
H       -0.0633410285   -2.1236787647    0.7173024095
H        1.6545244534   -2.2332000888    0.2655812201
H       -0.8590521369    0.6555206978   -1.7162505347
H       -1.6182202229   -0.5369592645   -0.6361123839
H       -0.1850761204   -1.5596987048   -2.9774516011
H       -0.7568149716   -2.5877572969   -1.6520092048
H        0.9299403429   -2.6798304283   -2.1894302308
H        1.5108823296    0.3127755916   -2.5026870218
H        2.5805561360   -0.7909231964   -1.6224629208
H        1.9985913007    0.6842120789   -0.8415361570
H       -2.6757616215    0.6363225600    1.5735206226
24   
torsion grid (-105,)
C        0.6239506008    1.0561312659   -0.8235336752
C       -0.2814462143    0.3351311495    1.4011665473
C       -0.5132010784    1.2604531305    0.1938129610
C       -1.8705502487    0.9516211146   -0.4594446209
C       -0.4653978417    2.7146660393    0.6877024219
C       -0.7281841372   -3.3765828324   -0.3967918639
O        0.7138736676   -0.3331783127   -1.2515139606
O       -0.1826604966   -1.0636802527    0.9977225787
O        0.4691929103   -2.7624049219   -0.7392276500
F       -1.7650077062   -2.7796173360   -1.0526435659
F       -0.6493676957   -4.6531927244   -0.8277800445
P        1.0051563033   -1.3839296953   -0.0612073073
S        2.7948152094   -1.4352728646    0.6334489789
H        0.4373492899    1.6212551778   -1.7381477376
H        1.5925211367    1.3600254907   -0.4102942401
H        0.6331396783    0.6010659751    1.9425544101
H       -1.1252416039    0.3703021777    2.0920440998
H       -2.6843642699    1.0973995846    0.2589849307
H       -1.9173959815   -0.0767411214   -0.8236372397
H       -2.0480351823    1.6209459991   -1.3078175940
H       -1.2564163189    2.9013601783    1.4216045707
H       -0.6179023356    3.4101713559   -0.1441210900
H        0.4952122259    2.9541812997    1.1568971700
H       -0.9309110266   -3.3546291088    0.6738640480
24   
torsion grid (-90,)
C        0.6043479593    1.0178794978   -0.8296406292
C       -0.2474342450    0.3443351048    1.4309381172
C       -0.5143358071    1.2354199685    0.2051469058
C       -1.8810093245    0.8966243178   -0.4128607050
C       -0.4738665475    2.7021852225    0.6613089644
C       -0.7566682296   -3.2976266756   -0.4578947180
O        0.7099157671   -0.3820795344   -1.2169367308
O       -0.1345120181   -1.0630728677    1.0631007485
O        0.5364098607   -2.8110252085   -0.6138491094
F       -1.6146022749   -2.6391589007   -1.2900184372
F       -0.7304897339   -4.5928960061   -0.8334992091
P        1.0456282655   -1.3929028557   -0.0030777162
S        2.8480176061   -1.3902245683    0.6562281539
H        0.3892738730    1.5516008082   -1.7568121118
H        1.5759680604    1.3501734398   -0.4465993588
H        0.6723518515    0.6378259214    1.9487035939
H       -1.0789007261    0.3858128960    2.1363504292
H       -2.6811611569    1.0413378373    0.3210552778
H       -1.9200308463   -0.1367200812   -0.7627729374
H       -2.0871056111    1.5507117695   -1.2666446623
H       -1.2533497598    2.8987519853    1.4049341441
H       -0.6496497335    3.3746085230   -0.1847769256
H        0.4924237508    2.9639853181    1.1062138641
H       -1.1220920956   -3.2100651430    0.5650451790
24   
torsion grid (-75,)
C        0.5789823749    0.9784896065   -0.8317675458
C       -0.2126918472    0.3609850903    1.4647583011
C       -0.5166737682    1.2167027894    0.2224734874
C       -1.8945600436    0.8518933318   -0.3542444576
C       -0.4786288076    2.6956034469    0.6377241041
C       -0.7746337246   -3.2267333515   -0.5403204478
O        0.6892743409   -0.4313020358   -1.1785251980
O       -0.0935167153   -1.0539630042    1.1329285185
O        0.5653318851   -2.8525901577   -0.4856388897
F       -1.4015029141   -2.6072338734   -1.5797613832
F       -0.7941230187   -4.5547302562   -0.7767478052
P        1.0700381851   -1.4049025173    0.0532006711
S        2.8859740447   -1.3684426537    0.6687248776
H        0.3374425731    1.4820512108   -1.7692661584
H        1.5559041950    1.3310167829   -0.4818464288
H        0.7153702932    0.6783058425    1.9528841817
H       -1.0277352432    0.4144340938    2.1884754034
H       -2.6791484310    1.0091150172    0.3936703837
H       -1.9329703089   -0.1895575733   -0.6797184863
H       -2.1256629984    1.4812424188   -1.2200847923
H       -1.2410746343    2.9055965393    1.3952324208
H       -0.6813792100    3.3435052338   -0.2213844298
H        0.4959262418    2.9774446455    1.0511484225
H       -1.3108135840   -3.0014498580    0.3817273783
24   
torsion grid (-60,)
C        0.5375773074    0.9408264189   -0.8323812951
C       -0.1812506344    0.3792865661    1.5024303166
C       -0.5242980958    1.2053551004    0.2497293151
C       -1.9188849731    0.8281383210   -0.2763662204
C       -0.4756666676    2.6941327191    0.6267088961
C       -0.7620750944   -3.1713602084   -0.6605256215
O        0.6408276289   -0.4778299070   -1.1425449013
O       -0.0663484523   -1.0417892284    1.2011557176
O        0.5704997585   -2.8813197911   -0.3754219839
F       -1.0548993096   -2.8259559513   -1.9418549481
F       -0.8987890672   -4.5103632819   -0.5505044057
P        1.0746779827   -1.4142351981    0.1035730027
S        2.9038908829   -1.3445228626    0.6710873129
H        0.2654123956    1.4176372113   -1.7754902646
H        1.5239304603    1.3047266332   -0.5234205615
H        0.7589954415    0.7125608179    1.9553972901
H       -0.9748338460    0.4481361290    2.2484726712
H       -2.6793718350    0.9825780300    0.4962989310
H       -1.9607941760   -0.2159965374   -0.5941503560
H       -2.1845387978    1.4481594276   -1.1388231602
H       -1.2164959721    2.9232193541    1.3999655316
H       -0.7019911265    3.3209742111   -0.2420923599
H        0.5100358860    2.9850362186    1.0057685746
H       -1.4564808113   -2.6719134235    0.0166306461
24   
torsion grid (-45,)
C        0.4750971442    0.8949037865   -0.8378186045
C       -0.1670503035    0.3979013413    1.5382810984
C       -0.5392477578    1.2024936324    0.2790256541
C       -1.9613632607    0.8461292829   -0.1831023581
C       -0.4468308509    2.6985622184    0.6181641733
C       -0.7016731436   -3.1585486150   -0.7992961049
O        0.5639988558   -0.5341840075   -1.1077775519
O       -0.0735094225   -1.0298949247    1.2626575091
O        0.5617451797   -2.9099227867   -0.2685219898
F       -0.6268455869   -3.1881040317   -2.1529990437
F       -1.0751628501   -4.3872983915   -0.3768932641
P        1.0514980458   -1.4239391145    0.1576875751
S        2.8898510364   -1.3025175143    0.6846093471
H        0.1663221230    1.3431818838   -1.7836228317
H        1.4749111148    1.2625304253   -0.5821293330
H        0.7885131299    0.7324314060    1.9568717971
H       -0.9382227417    0.4897521263    2.3050209952
H       -2.6893705598    1.0535172082    0.6080252120
H       -2.0453805641   -0.2095931580   -0.4504027830
H       -2.2408014334    1.4362668690   -1.0620114037
H       -1.1515920178    2.9600347451    1.4144719952
H       -0.6951219666    3.3103928085   -0.2553763860
H        0.5586564851    2.9771925005    0.9514238691
H       -1.4492917706   -2.4258069217   -0.4926454440
24   
torsion grid (-30,)
C        0.4266246548    0.8599976679   -0.8329615813
C       -0.1424049390    0.4365163342    1.5755641923
C       -0.5487027292    1.2086923747    0.3065808038
C       -1.9888120437    0.8496911127   -0.0936117353
C       -0.4327975167    2.7135780052    0.5955439769
C       -0.6506385484   -3.1645053028   -0.9260701093
O        0.4979109434   -0.5772050842   -1.0663971393
O       -0.0794159857   -0.9984554557    1.3341296633
O        0.4891301077   -2.9265746913   -0.1629893524
F       -0.2838772228   -3.4287012393   -2.2043977111
F       -1.2440370416   -4.2725963438   -0.4266677511
P        1.0096514497   -1.4373628530    0.2124785957
S        2.8613162221   -1.3188898937    0.6920334140
H        0.0921961650    1.2844451900   -1.7810038332
H        1.4370411299    1.2250885394   -0.6192762392
H        0.8311142511    0.7702139498    1.9516193394
H       -0.8857040603    0.5602235432    2.3650642019
H       -2.6902723409    1.1276138110    0.6998707531
H       -2.1001795209   -0.2216026555   -0.2762044262
H       -2.2823677801    1.3810794204   -1.0048564825
H       -1.1048693853    3.0046757377    1.4095617566
H       -0.7098269400    3.3009435130   -0.2861890193
H        0.5865057142    2.9939251135    0.8821469062
H       -1.3584556989   -2.3353100249   -0.9203260958
24   
torsion grid (-15,)
C        0.3832151468    0.8410944137   -0.8272396757
C       -0.1170255587    0.4803421825    1.6048863166
C       -0.5559269517    1.2249832094    0.3306404685
C       -2.0086442956    0.8626318378   -0.0181330417
C       -0.4224098538    2.7355952026    0.5777326190
C       -0.5991987226   -3.2013806675   -1.0274795604
O        0.4279907481   -0.6017334299   -1.0329433370
O       -0.0886517764   -0.9603502620    1.3965000869
O        0.3758031243   -2.9293060526   -0.0740449573
F        0.0002640709   -3.6380643917   -2.1636553647
F       -1.3615707794   -4.2105073924   -0.5462887326
P        0.9510754649   -1.4482239775    0.2517314564
S        2.8184071294   -1.3599377054    0.6769060637
H        0.0289933369    1.2508232616   -1.7745782260
H        1.4043675340    1.1947694045   -0.6485093723
H        0.8746247928    0.8066722319    1.9379497562
H       -0.8301490974    0.6365214078    2.4161307131
H       -2.6849893460    1.1639360258    0.7884896575
H       -2.1286790894   -0.2129049279   -0.1686123997
H       -2.3268849543    1.3732354786   -0.9330918101
H       -1.0687538410    3.0514702328    1.4032101164
H       -0.7214609472    3.3024566282   -0.3102235290
H        0.6064772628    3.0162934217    0.8276215218
H       -1.2277445127   -2.3429353635   -1.2633566424
24   
torsion grid (0,)
C        0.3388114259    0.8215888198   -0.8263068431
C       -0.1044319761    0.5165253701    1.6243841054
C       -0.5627063674    1.2450155213    0.3474496073
C       -2.0295778014    0.9015050333    0.0414740885
C       -0.3953537377    2.7571537729    0.5618333586
C       -0.5440353362   -3.2565171678   -1.0947920243
O        0.3445714757   -0.6256200436   -1.0076744567
O       -0.1184296112   -0.9283752728    1.4452311730
O        0.2390638312   -2.9294122164    0.0057961922
F        0.2527547473   -3.6831563043   -2.1085674691
F       -1.3331102052   -4.2899434367   -0.7231735452
P        0.8753166999   -1.4609740587    0.2816925559
S        2.7555631252   -1.4061389351    0.6557868805
H       -0.0296263679    1.2234821456   -1.7715793557
H        1.3721268708    1.1536390962   -0.6789093293
H        0.9041722962    0.8250025894    1.9217476495
H       -0.7897446649    0.7068073940    2.4521077505
H       -2.6792485902    1.2205285368    0.8630865189
H       -2.1684683853   -0.1734587876   -0.0960675513
H       -2.3642992220    1.4096226222   -0.8690669194
H       -1.0156742708    3.1006093855    1.3962296828
H       -0.7054767568    3.3126265060   -0.3295198875
H        0.6442681721    3.0232165688    0.7816732304
H       -1.1573364664   -2.4282463703   -1.4491932845
24   
torsion grid (15,)
C        0.5518350925   -1.3413401425    0.4956945368
C       -0.6537549152    0.0158728070   -1.2077434244
C        0.5291992043   -0.9341683704   -0.9825598407
C        0.3008764389   -2.2030771809   -1.8194536033
C        1.8497894018   -0.2534816177   -1.3802457849
C       -2.1595250915   -0.4222863746    2.3474120498
O        0.5538530659   -0.1984020710    1.4129034733
O       -0.4906991357    1.2412817693   -0.4402814494
O       -1.8593495254    0.6913096276    1.6058762827
F       -3.2654212964   -0.1577951495    3.0764179507
F       -2.4779660048   -1.4685662851    1.5052980188
P       -0.3180922077    1.1341241079    1.1490597425
S        0.3305896013    2.7059001528    2.0168049478
H       -0.3102382116   -1.9668849792    0.7383775428
H        1.4670925339   -1.8839841899    0.7388953078
H       -0.7072795790    0.3418946421   -2.2478601540
H       -1.6057058737   -0.4506522276   -0.9316577679
H        0.3057596181   -1.9644197487   -2.8878622386
H       -0.6561085365   -2.6804526254   -1.5821782728
H        1.0967067674   -2.9338629829   -1.6414756453
H        1.8184969806    0.0642063206   -2.4275591669
H        2.6868158701   -0.9494980525   -1.2632102597
H        2.0542388514    0.6286537017   -0.7691945927
H       -1.3517770401   -0.7503874945    3.0044528879
24   
torsion grid (30,)
C        0.5198649179   -1.3560738328    0.4642292590
C       -0.6328124054    0.0327791627   -1.2509678621
C        0.5340396984   -0.9334586488   -1.0101147617
C        0.3082341567   -2.1900971209   -1.8659343439
C        1.8706056792   -0.2645737370   -1.3723776869
C       -2.1500194214   -0.3964553042    2.4341552913
O        0.5526121128   -0.2187999126    1.3872338970
O       -0.4855694454    1.2431087975   -0.4548172635
O       -1.8925379638    0.5825816585    1.5050464909
F       -3.2877987428   -0.0723299569    3.0879470097
F       -2.3883366856   -1.5879667537    1.7868627610
P       -0.3492614167    1.0954422247    1.1336978749
S        0.2350878277    2.6496512306    2.0758012585
H       -0.3676702689   -1.9512991696    0.6909658248
H        1.4111605465   -1.9340377128    0.7149300125
H       -0.6539015149    0.3791806640   -2.2855904345
H       -1.5960280253   -0.4299476368   -1.0098875448
H        0.3182065881   -1.9369657652   -2.9310288269
H       -0.6502729244   -2.6700218717   -1.6400126075
H        1.1024942748   -2.9239732494   -1.6941876396
H        1.8723615873    0.0471150702   -2.4220016391
H        2.6991301336   -0.9653198260   -1.2267583633
H        2.0627504225    0.6192881145   -0.7599012519
H       -1.3430031227   -0.5538427876    3.1526210865
24   
torsion grid (45,)
C        0.5020035932   -1.3822573690    0.4243388593
C       -0.6159089556    0.0411887085   -1.2867241171
C        0.5405401457   -0.9370825119   -1.0433875286
C        0.3171230925   -2.1779139103   -1.9225440067
C        1.8867720990   -0.2723373316   -1.3753149481
C       -2.1562739334   -0.3429705053    2.5344615844
O        0.5664002568   -0.2559800979    1.3573834014
O       -0.4916503818    1.2302286165   -0.4514556967
O       -1.9033867781    0.4564853485    1.4420389505
F       -3.3942858253   -0.0489386495    2.9914686885
F       -2.1762311435   -1.6598219159    2.1438239327
P       -0.3704814040    1.0364738563    1.1314511627
S        0.1525127557    2.5679219364    2.1472152300
H       -0.4055066584   -1.9510672353    0.6404957502
H        1.3726787380   -1.9916563807    0.6728559673
H       -0.6080304024    0.4185737432   -2.3105691172
H       -1.5862514682   -0.4239504626   -1.0838013353
H        0.3445818595   -1.9089975658   -2.9834866978
H       -0.6481586200   -2.6538297503   -1.7178745638
H        1.1029780354   -2.9206545892   -1.7503563136
H        1.9061157806    0.0562286266   -2.4196012612
H        2.7084898025   -0.9808798663   -1.2288249200
H        2.0755029041    0.5996227676   -0.7449947959
H       -1.4301974839   -0.2344018253    3.3433123154
24   
torsion grid (60,)
C        0.5103931223   -1.4048380114    0.3912945344
C       -0.5957950728    0.0578579145   -1.2980502487
C        0.5476207014   -0.9404778163   -1.0712647932
C        0.3042694851   -2.1643221375   -1.9684961725
C        1.9015351639   -0.2886775531   -1.3975355384
C       -2.1868145250   -0.2894581611    2.6082271748
O        0.6230611284   -0.2887214820    1.3277892443
O       -0.4806020314    1.2200721030   -0.4219239706
O       -1.8721823481    0.3178877804    1.4108806041
F       -3.5201806244   -0.1612094872    2.7950416714
F       -1.9168319652   -1.6320040318    2.5312739918
P       -0.3605952921    0.9733730655    1.1537208807
S        0.0936308694    2.4799692055    2.2392093820
H       -0.4128924344   -1.9464398788    0.6148154856
H        1.3628726847   -2.0458374465    0.6226064875
H       -0.5676655530    0.4689383585   -2.3084765402
H       -1.5729311868   -0.4047022251   -1.1263016442
H        0.3166009533   -1.8778328814   -3.0251830481
H       -0.6601851319   -2.6390388599   -1.7571160950
H        1.0889689405   -2.9135282163   -1.8209642343
H        1.9269995486    0.0418900823   -2.4410898941
H        2.7164534103   -1.0048815026   -1.2501693746
H        2.0957883095    0.5795312238   -0.7637266013
H       -1.6521821439    0.1264335939    3.4653492389
24   
torsion grid (75,)
C        0.5437627837   -1.4327125613    0.3608316628
C       -0.5798431907    0.0668550395   -1.2879721695
C        0.5584841725   -0.9454557880   -1.0953391543
C        0.2907735912   -2.1508272001   -2.0101562634
C        1.9124817521   -0.2986245249   -1.4311295506
C       -2.2435545310   -0.2289542960    2.6605278906
O        0.6901866138   -0.3296399637    1.3045419328
O       -0.4628504742    1.2018502874   -0.3759346579
O       -1.8199130252    0.1822599307    1.4131029768
F       -3.5925221431   -0.3275633471    2.6150207472
F       -1.7513064036   -1.4782531438    2.9292574413
P       -0.3345631325    0.9040479515    1.1915949782
S        0.0667329351    2.3859359572    2.3315787720
H       -0.3827627802   -1.9653348915    0.5963816826
H        1.3915644204   -2.0887274287    0.5655617818
H       -0.5493321870    0.5091724198   -2.2850926768
H       -1.5590679115   -0.3961822040   -1.1314152858
H        0.2790899556   -1.8441294330   -3.0612257847
H       -0.6699939188   -2.6270073983   -1.7855892135
H        1.0765613128   -2.9046568997   -1.8956166342
H        1.9278088880    0.0413269934   -2.4718804444
H        2.7253543089   -1.0202996651   -1.2997127179
H        2.1178069056    0.5622402151   -0.7908021467
H       -1.9455619333    0.4486635874    3.4633773739
24   
torsion grid (90,)
C        0.5907250592   -1.4725543280    0.3273384100
C       -0.5781125774    0.0499499099   -1.2671339912
C        0.5733756710   -0.9550643603   -1.1182891580
C        0.3011959037   -2.1423708188   -2.0548638197
C        1.9146781537   -0.2868698168   -1.4629617286
C       -2.3099468758   -0.1535968489    2.7062845938
O        0.7463061955   -0.3866278853    1.2881132210
O       -0.4603847640    1.1612670243   -0.3269696904
O       -1.7640190303    0.0498009254    1.4545333136
F       -3.6390695110   -0.3485963749    2.5358933959
F       -1.7943758973   -1.2947658124    3.2547920452
P       -0.3081309804    0.8249359227    1.2322627158
S        0.0712108298    2.2920377073    2.3989482179
H       -0.3274457939   -2.0173009174    0.5694331222
H        1.4475793863   -2.1253687729    0.5024256640
H       -0.5668071461    0.5187633115   -2.2525181413
H       -1.5500946424   -0.4279509874   -1.1095429758
H        0.2658900791   -1.8120384641   -3.0982347337
H       -0.6499554948   -2.6342038032   -1.8231506910
H        1.0971826378   -2.8897111864   -1.9726791590
H        1.9086450172    0.0752235798   -2.4963037319
H        2.7372840468   -1.0022317280   -1.3606540615
H        2.1213614659    0.5622020476   -0.8075281991
H       -2.1377557243    0.6790553129    3.3907159219
24   
torsion grid (105,)
C        0.6519152664   -1.5096749461    0.2998493476
C       -0.5881196469    0.0170736988   -1.2335600002
C        0.5884307653   -0.9647229233   -1.1343126879
C        0.3199739556   -2.1389229063   -2.0881766172
C        1.9058665826   -0.2594750675   -1.4970759692
C       -2.3741496415   -0.0835240221    2.7320715438
O        0.8058850485   -0.4395338605    1.2785448903
O       -0.4687881643    1.1111444343   -0.2747372437
O       -1.6956362932   -0.0769704917    1.5298463878
F       -3.6920838103   -0.2314322206    2.4506997752
F       -1.9892295419   -1.1672858308    3.4668725160
P       -0.2750084388    0.7489813081    1.2755753544
S        0.1014056708    2.2111373045    2.4497898016
H       -0.2481181325   -2.0796341526    0.5523776077
H        1.5271460643   -2.1459281035    0.4418549941
H       -0.6130550689    0.5049960597   -2.2094147338
H       -1.5452198506   -0.4854496682   -1.0608660169
H        0.2519837007   -1.7885123720   -3.1233469112
H       -0.6141669264   -2.6567378033   -1.8441810977
H        1.1340979379   -2.8695394628   -2.0405259767
H        1.8659539117    0.1244822452   -2.5217492812
H        2.7461915059   -0.9583447730   -1.4310707432
H        2.1102691247    0.5797375006   -0.8283937634
H       -2.2162080105    0.8221196897    3.3198393644
24   
torsion grid (120,)
C        0.7197485680   -1.5324768518    0.2850444112
C       -0.6027334016   -0.0145356504   -1.1868715382
C        0.5989613309   -0.9692846434   -1.1384126494
C        0.3285317682   -2.1366101340   -2.1000639812
C        1.8877256980   -0.2282030093   -1.5312818885
C       -2.4246097633   -0.0392338891    2.7210549348
O        0.8733313412   -0.4733020889    1.2763293213
O       -0.4757318802    1.0699360525   -0.2188972214
O       -1.6092277583   -0.1952616228    1.6187941900
F       -3.7128999992   -0.0842061680    2.2928022527
F       -2.2403275240   -1.0936237997    3.5638467349
P       -0.2335913886    0.6887216063    1.3215449853
S        0.1374865671    2.1502371168    2.4985944752
H       -0.1566051883   -2.1304858787    0.5553190431
H        1.6159503472   -2.1459719019    0.3918144610
H       -0.6718135558    0.4836603424   -2.1554025882
H       -1.5415695669   -0.5417548391   -0.9887355872
H        0.2222681685   -1.7742331323   -3.1278395553
H       -0.5863748862   -2.6783497473   -1.8359522705
H        1.1595646352   -2.8494107065   -2.0862760773
H        1.8070185451    0.1695027990   -2.5482687854
H        2.7453629328   -0.9083128063   -1.5020002662
H        2.0937641120    0.6058327589   -0.8566454390
H       -2.2448930933    0.8913498305    3.2614135785
24   
torsion grid (135,)
C        0.8033289606   -1.5327465590    0.2857984415
C       -0.6388928847   -0.0736578534   -1.1337185858
C        0.6019533557   -0.9783929099   -1.1320418272
C        0.3416136207   -2.1591528551   -2.0801002620
C        1.8418754284   -0.1858112217   -1.5781180837
C       -2.4381641716   -0.0086237528    2.7021995802
O        0.9499874943   -0.4667875748    1.2720156723
O       -0.5142355432    1.0202945242   -0.1763925394
O       -1.5016934103   -0.3036156847    1.7325718541
F       -3.5851655658    0.4165388349    2.1013560807
F       -2.7285114045   -1.1612302273    3.3585175923
P       -0.1964736072    0.6532130822    1.3538862089
S        0.1621836107    2.1363130595    2.5079922182
H       -0.0349401851   -2.1674639470    0.5907920131
H        1.7288307853   -2.1066371349    0.3569737539
H       -0.7687109995    0.4157084244   -2.1004546950
H       -1.5464534678   -0.6370917266   -0.8938677721
H        0.1806536870   -1.8050053681   -3.1035950156
H       -0.5395736084   -2.7364486381   -1.7792400248
H        1.2007593056   -2.8377490397   -2.0975134767
H        1.7025071935    0.2062677306   -2.5909221701
H        2.7273581669   -0.8298731920   -1.5844727772
H        2.0410776405    0.6575106520   -0.9130417449
H       -2.0999783928    0.7484250140    3.4112860996
24   
torsion grid (150,)
C        0.8588995858   -1.5480208549    0.2833573053
C       -0.6600099260   -0.1008847022   -1.0673639453
C        0.5981145065   -0.9798376372   -1.1193558934
C        0.3300174799   -2.1539734115   -2.0735413414
C        1.8060808632   -0.1565037903   -1.5964692427
C       -2.4556321215    0.0173096358    2.6370209385
O        1.0147054221   -0.4930397082    1.2807418800
O       -0.5206058440    0.9869008264   -0.1055791098
O       -1.4011970759   -0.3874356674    1.8431414489
F       -3.4734761121    0.4711670538    1.8484404649
F       -2.9085788543   -1.0783881689    3.2938575682
P       -0.1425023362    0.6090843718    1.4090735015
S        0.2228945703    2.0930868758    2.5597770004
H        0.0457885122   -2.2056540846    0.6069718486
H        1.7989951047   -2.1012683633    0.3158076064
H       -0.8357564700    0.3933444246   -2.0243356273
H       -1.5464226506   -0.6849299016   -0.7993168211
H        0.1290076791   -1.7905056637   -3.0866248196
H       -0.5295012490   -2.7523544464   -1.7519127390
H        1.2011957318   -2.8151087779   -2.1275448821
H        1.6244825580    0.2460481788   -2.5984044236
H        2.7032173370   -0.7826313334   -1.6418011756
H        2.0115007909    0.6819317330   -0.9271308634
H       -2.1818814935    0.7956470481    3.3511018621
24   
torsion grid (165,)
C        0.9032069119   -1.5540336019    0.2900411797
C       -0.6759228022   -0.1071238167   -0.9920498241
C        0.5863966530   -0.9753865085   -1.0966835681
C        0.2925752506   -2.1438318961   -2.0504437547
C        1.7696410596   -0.1385487489   -1.6105725318
C       -2.4561787310    0.0188776409    2.5335180972
O        1.0875056572   -0.5069213151    1.2918219546
O       -0.5113616481    0.9727948769   -0.0254246042
O       -1.2923688128   -0.4430735468    1.9522422240
F       -3.3464556602    0.3808564512    1.5604426118
F       -2.9997547640   -1.0155573730    3.2173300961
P       -0.0730193877    0.5827535912    1.4705000020
S        0.3034548519    2.0649526026    2.6192644145
H        0.1078651823   -2.2209412028    0.6372825501
H        1.8483278402   -2.0994992409    0.2827081941
H       -0.8886897838    0.3946536312   -1.9375175569
H       -1.5480710166   -0.7004523510   -0.6993949942
H        0.0512609790   -1.7735777725   -3.0522090445
H       -0.5498341245   -2.7516891324   -1.7024025091
H        1.1662576905   -2.7974326811   -2.1423634684
H        1.5476192126    0.2720806966   -2.6010040328
H        2.6690561935   -0.7572452021   -1.6954210609
H        1.9938584370    0.6951558504   -0.9413229508
H       -2.2960331801    0.8671726855    3.2015691166
24   
torsion grid (180,)
C        0.9251558328   -1.5630201048    0.2963438923
C       -0.6875950553   -0.0991155524   -0.9210559668
C        0.5712665965   -0.9649794589   -1.0727275609
C        0.2487385936   -2.1196938225   -2.0340525086
C        1.7412943746   -0.1229509665   -1.6077835956
C       -2.4485569863    0.0032738722    2.4173774377
O        1.1450123085   -0.5287324941    1.3039369455
O       -0.5007386848    0.9662022851    0.0584599200
O       -1.1986630681   -0.4660555461    2.0689112592
F       -3.2425557176    0.0781071649    1.3034027458
F       -3.0052230771   -0.9080624831    3.2483697436
P       -0.0024409530    0.5633252057    1.5335935447
S        0.4130883084    2.0435333344    2.6701789626
H        0.1365474941   -2.2296806885    0.6588737432
H        1.8667460676   -2.1130424057    0.2548808374
H       -0.9249230766    0.4179934261   -1.8523686091
H       -1.5517142151   -0.6974465848   -0.6167591043
H       -0.0227408479   -1.7348555955   -3.0225149419
H       -0.5830924723   -2.7325003108   -1.6696806350
H        1.1190259545   -2.7717459283   -2.1619470070
H        1.4936097000    0.2989538719   -2.5873274005
H        2.6377481248   -0.7410039249   -1.7233106310
H        1.9840480582    0.7030587615   -0.9354315799
H       -2.4247012510    0.9824215820    2.9005410489
