
  -OEChem-12102412483D

 29 30  0     1  0  0  0  0  0999 V2000
    2.1685   -6.0524    8.2723 C   0  0  0  0  0  0  0  0  0  0  0  0
    3.6813   -4.6594   -0.5767 C   0  0  0  0  0  0  0  0  0  0  0  0
    3.3900   -6.0088    7.5912 C   0  0  0  0  0  0  0  0  0  0  0  0
    0.9817   -6.2180    7.5514 C   0  0  0  0  0  0  0  0  0  0  0  0
    4.6898   -4.3767    0.3550 C   0  0  0  0  0  0  0  0  0  0  0  0
    2.5354   -5.3321   -0.1505 C   0  0  0  0  0  0  0  0  0  0  0  0
    3.4272   -6.1362    6.1998 C   0  0  0  0  0  0  0  0  0  0  0  0
    1.0207   -6.3399    6.1591 C   0  0  0  0  0  0  0  0  0  0  0  0
    4.5517   -4.7615    1.6866 C   0  0  0  0  0  0  0  0  0  0  0  0
    2.3827   -5.7260    1.1853 C   0  0  0  0  0  0  0  0  0  0  0  0
    2.2409   -6.3030    5.4732 C   0  0  0  0  0  0  0  0  0  0  0  0
    3.3959   -5.4378    2.1114 C   0  0  0  0  0  0  0  0  0  0  0  0
    2.4280   -7.9973    3.6226 C   0  0  0  0  0  0  0  0  0  0  0  0
    2.2633   -6.5130    3.9731 C   0  0  2  0  0  0  0  0  0  0  0  0
    3.3597   -5.7472    3.4456 O   0  0  0  0  0  0  0  0  0  0  0  0
    2.1414   -5.9523    9.3544 H   0  0  0  0  0  0  0  0  0  0  0  0
    3.7904   -4.3604   -1.6153 H   0  0  0  0  0  0  0  0  0  0  0  0
    4.3156   -5.8733    8.1451 H   0  0  0  0  0  0  0  0  0  0  0  0
    0.0271   -6.2447    8.0706 H   0  0  0  0  0  0  0  0  0  0  0  0
    5.5894   -3.8526    0.0422 H   0  0  0  0  0  0  0  0  0  0  0  0
    1.7439   -5.5608   -0.8599 H   0  0  0  0  0  0  0  0  0  0  0  0
    4.3739   -6.0916    5.6706 H   0  0  0  0  0  0  0  0  0  0  0  0
    0.0926   -6.4601    5.6031 H   0  0  0  0  0  0  0  0  0  0  0  0
    5.3232   -4.5449    2.4200 H   0  0  0  0  0  0  0  0  0  0  0  0
    1.4808   -6.2499    1.4796 H   0  0  0  0  0  0  0  0  0  0  0  0
    3.3519   -8.3787    4.0670 H   0  0  0  0  0  0  0  0  0  0  0  0
    2.4710   -8.1514    2.5411 H   0  0  0  0  0  0  0  0  0  0  0  0
    1.5896   -8.5735    4.0260 H   0  0  0  0  0  0  0  0  0  0  0  0
    1.3238   -6.1289    3.5590 H   0  0  0  0  0  0  0  0  0  0  0  0
  1  3  1  0  0  0  0
  1  4  2  0  0  0  0
  1 16  1  0  0  0  0
  2  5  1  0  0  0  0
  2  6  2  0  0  0  0
  2 17  1  0  0  0  0
  3  7  2  0  0  0  0
  3 18  1  0  0  0  0
  4  8  1  0  0  0  0
  4 19  1  0  0  0  0
  5  9  2  0  0  0  0
  5 20  1  0  0  0  0
  6 10  1  0  0  0  0
  6 21  1  0  0  0  0
  7 11  1  0  0  0  0
  7 22  1  0  0  0  0
  8 11  2  0  0  0  0
  8 23  1  0  0  0  0
  9 12  1  0  0  0  0
  9 24  1  0  0  0  0
 10 12  2  0  0  0  0
 10 25  1  0  0  0  0
 11 14  1  0  0  0  0
 12 15  1  0  0  0  0
 13 14  1  0  0  0  0
 13 26  1  0  0  0  0
 13 27  1  0  0  0  0
 13 28  1  0  0  0  0
 14 15  1  0  0  0  0
 14 29  1  0  0  0  0
M  END
$$$$
