18
0 1 C8H8O2
C                    -3.858608288137     0.815915771724    -7.389861462923
C                    -2.931702015104    -0.100680547005    -7.902436347162
C                    -4.620362899351     1.574751462612    -8.271248706060
C                    -2.781775501318    -0.243440646664    -9.279853489749
C                    -4.493845063365     1.454892729143    -9.669079880860
C                    -3.553788292138     0.525442648341   -10.164457585274
C                    -5.382236961737     2.338796717926   -10.504107908860
C                    -5.333973634702     2.283948172095   -12.016224856128
O                    -6.155071114965     3.112201382396    -9.944991544977
O                    -3.395367700939     0.374875650210   -11.519969506018
H                    -3.980946809516     0.932643972191    -6.317073024065
H                    -2.325196117472    -0.704731374594    -7.232624106675
H                    -5.346756529363     2.293501773412    -7.905823451735
H                    -2.060919276891    -0.956081580108    -9.678686950242
H                    -5.559951883215     1.276431239165   -12.377103493943
H                    -4.331365032072     2.523403892109   -12.382157062220
H                    -6.059673031840     2.997859554187   -12.408705888171
H                    -2.713589028017    -0.297497030086   -11.679750177901
