23
0 1 C6H13NO2S
C                     4.878511682621     7.304084303039   -11.806512954143
C                     3.435897558133     7.729065743038   -11.485622841110
C                     5.912809586253     8.166899495164   -11.068362879797
C                     3.122178701197     7.669272549475    -9.984353698570
C                     7.113702831802     7.168175857609    -7.699810821251
C                     6.263621532529     6.863058797400    -8.930856695391
N                     5.789306615714     8.103433774717    -9.593949279612
O                     4.185759742346     8.400512220338    -7.632152689060
O                     4.171719067540    10.066054886864    -9.571070202365
S                     4.301831350313     8.697877077832    -9.061896377101
H                     5.022902219601     6.248550110477   -11.542629043516
H                     5.051464247332     7.387470968375   -12.885277179571
H                     3.263211471189     8.750417728386   -11.840138990818
H                     2.726249830912     7.080756459753   -12.010992161365
H                     6.931883024492     7.857101021135   -11.315564854574
H                     5.813371367419     9.215499582396   -11.359849303454
H                     2.128596517670     8.059584928641    -9.749346326858
H                     3.210485185270     6.657813135198    -9.577687277629
H                     7.960742441636     7.805150614842    -7.971868302530
H                     6.517941983268     7.684245216477    -6.944782994319
H                     7.498922261323     6.237232322300    -7.268418150631
H                     5.428967929157     6.205286671982    -8.657921129199
H                     6.856952245850     6.322931857179    -9.674836212348
