
  -OEChem-12102412483D

 18 18  0     0  0  0  0  0  0999 V2000
   -3.8586    0.8159   -7.3899 C   0  0  0  0  0  0  0  0  0  0  0  0
   -2.9317   -0.1007   -7.9024 C   0  0  0  0  0  0  0  0  0  0  0  0
   -4.6204    1.5748   -8.2712 C   0  0  0  0  0  0  0  0  0  0  0  0
   -2.7818   -0.2434   -9.2799 C   0  0  0  0  0  0  0  0  0  0  0  0
   -4.4938    1.4549   -9.6691 C   0  0  0  0  0  0  0  0  0  0  0  0
   -3.5538    0.5254  -10.1645 C   0  0  0  0  0  0  0  0  0  0  0  0
   -5.3822    2.3388  -10.5041 C   0  0  0  0  0  0  0  0  0  0  0  0
   -5.3340    2.2839  -12.0162 C   0  0  0  0  0  0  0  0  0  0  0  0
   -6.1551    3.1122   -9.9450 O   0  0  0  0  0  0  0  0  0  0  0  0
   -3.3954    0.3749  -11.5200 O   0  0  0  0  0  0  0  0  0  0  0  0
   -3.9809    0.9326   -6.3171 H   0  0  0  0  0  0  0  0  0  0  0  0
   -2.3252   -0.7047   -7.2326 H   0  0  0  0  0  0  0  0  0  0  0  0
   -5.3468    2.2935   -7.9058 H   0  0  0  0  0  0  0  0  0  0  0  0
   -2.0609   -0.9561   -9.6787 H   0  0  0  0  0  0  0  0  0  0  0  0
   -5.5600    1.2764  -12.3771 H   0  0  0  0  0  0  0  0  0  0  0  0
   -4.3314    2.5234  -12.3822 H   0  0  0  0  0  0  0  0  0  0  0  0
   -6.0597    2.9979  -12.4087 H   0  0  0  0  0  0  0  0  0  0  0  0
   -2.7136   -0.2975  -11.6798 H   0  0  0  0  0  0  0  0  0  0  0  0
  1  2  1  0  0  0  0
  1  3  2  0  0  0  0
  1 11  1  0  0  0  0
  2  4  2  0  0  0  0
  2 12  1  0  0  0  0
  3  5  1  0  0  0  0
  3 13  1  0  0  0  0
  4  6  1  0  0  0  0
  4 14  1  0  0  0  0
  5  6  2  0  0  0  0
  5  7  1  0  0  0  0
  6 10  1  0  0  0  0
  7  8  1  0  0  0  0
  7  9  2  0  0  0  0
  8 15  1  0  0  0  0
  8 16  1  0  0  0  0
  8 17  1  0  0  0  0
 10 18  1  0  0  0  0
M  END
$$$$
