27   
torsion grid (-165,)
C        5.6965302907    0.8438826818    0.6261318847
C        4.8110036325    0.6537066265    1.6956048912
C        5.3014386050    0.4468140483   -0.6529571423
C       -2.2688591294   -1.8325250018   -0.4887446112
C       -0.9047742939   -1.4143524160   -0.4166009401
C        3.5559606297    0.0878650233    1.4852771645
C        4.0471966442   -0.1324007150   -0.8744998751
C       -2.6036508814   -2.8054444615   -1.3855853268
C        0.0651870546   -1.9642707330   -1.2145237980
C        3.1506323072   -0.3126128079    0.1948964748
C       -0.2842046014   -2.9904538686   -2.1921032292
C        1.5155606216   -1.5540347523   -1.1931280891
N       -1.6403980448   -3.3521731099   -2.1886430187
N        1.8585407135   -0.8361434704    0.0267366310
O        0.4981559379   -3.5292757522   -2.9830160448
H        6.6743546939    1.2875212065    0.7905269132
H        5.0987042961    0.9519646877    2.7008919406
H        5.9771822767    0.5768867963   -1.4948537003
H       -3.0285428906   -1.3922511340    0.1463750468
H       -0.6271250710   -0.6273148762    0.2795833868
H        2.8716507801   -0.0424373400    2.3219340691
H        3.7810841354   -0.4469549841   -1.8776169805
H       -3.6117146718   -3.1865950211   -1.5112810226
H        1.6948402355   -0.8989453804   -2.0535310326
H        2.1394381849   -2.4445131069   -1.3594439938
H       -1.8821290576   -4.0681294288   -2.8666096422
H        1.5411956220   -1.3251081505    0.8575863290
27   
torsion grid (-150,)
C        5.6764216837    0.8291806837    0.5259882832
C        5.6684524283    0.0505473353   -0.6377669993
C        4.5073656595    0.9131230381    1.2871231277
C       -1.0278548064   -3.9413332509   -1.5570307738
C        0.0295443394   -3.0762281445   -1.1390627731
C        4.5163864111   -0.6304385194   -1.0277187073
C        3.3470542676    0.2332382901    0.9056715509
C       -2.2941678127   -3.4361247566   -1.6207371534
C       -0.1951574914   -1.7648047813   -0.8084457214
C        3.3384764796   -0.5597432169   -0.2569968863
C       -1.5480456411   -1.2186888513   -0.8524949775
C        0.8755370836   -0.8082685740   -0.3501820933
N       -2.5240618616   -2.1297818914   -1.2850126896
N        2.2143891676   -1.3045517802   -0.6570428983
O       -1.8698195966   -0.0655215475   -0.5448003531
H        6.5726722344    1.3636632560    0.8276926850
H        6.5633541964   -0.0228646096   -1.2509783027
H        4.4899469079    1.5187074691    2.1900284100
H       -0.8406239133   -4.9765802290   -1.8169654191
H        1.0398289648   -3.4698447381   -1.0654302831
H        4.5239608579   -1.2307949336   -1.9361613052
H        2.4559350371    0.3244074747    1.5174981563
H       -3.1585183970   -4.0160401558   -1.9271154442
H        0.7746576612   -0.6851499078    0.7331530754
H        0.6793416852    0.1835146667   -0.7828113771
H       -3.4643716805   -1.7485108381   -1.3181451839
H        2.2869122111   -1.5618594205   -1.6369644149
27   
torsion grid (-135,)
C        5.6346946477    0.6965044209    0.7107352661
C        5.6308221500    0.2278447201   -0.6068440368
C        4.4810552332    0.5383886780    1.4870897658
C       -1.0348750988   -3.9753127885   -1.1900269360
C        0.0261192346   -3.0384365571   -0.9957677705
C        4.4914322977   -0.3766345508   -1.1416219906
C        3.3428753710   -0.0789585263    0.9656265721
C       -2.3085817903   -3.4994549125   -1.3107489163
C       -0.2044280676   -1.6892904418   -0.9283093974
C        3.3312738380   -0.5445276946   -0.3629858375
C       -1.5620370283   -1.1686714605   -1.0419225910
C        0.8759193401   -0.6582699333   -0.7142539770
N       -2.5425789628   -2.1527917919   -1.2422873343
N        2.2159045882   -1.2185274416   -0.9001770086
O       -1.8848034081    0.0232377800   -0.9732717488
H        6.5176554631    1.1752151071    1.1246062656
H        6.5144983178    0.3436160254   -1.2296682094
H        4.4670753502    0.8904723643    2.5157236216
H       -0.8450118137   -5.0410987422   -1.2408385212
H        1.0473012804   -3.3941067896   -0.8877303214
H        4.4967791254   -0.7224838786   -2.1741421608
H        2.4714394955   -0.2140453978    1.5991710495
H       -3.1760500910   -4.1335779710   -1.4615410794
H        0.7852205622   -0.2646076876    0.3010993406
H        0.6855509606    0.1998986547   -1.3748758490
H       -3.4875116368   -1.7904619912   -1.3224005624
H        2.3706791114   -1.4407941101   -1.8792798563
27   
torsion grid (-120,)
C        5.5856364541    0.7691487148    0.7090767189
C        5.5498116967    0.4171002241   -0.6430906385
C        4.5056803888    0.4246374009    1.5316786450
C       -1.0993466106   -3.9680415338   -1.0731656898
C       -0.0044118562   -3.0648123474   -0.9106023289
C        4.4437131289   -0.2565026454   -1.1698359573
C        3.4102266863   -0.2686386050    1.0161905977
C       -2.3461385712   -3.4484679632   -1.2705252358
C       -0.1783958297   -1.7060175059   -0.9476331235
C        3.3646821606   -0.6174244854   -0.3458650021
C       -1.5068313407   -1.1376848116   -1.1456379640
C        0.9405400798   -0.7102613561   -0.7722829414
N       -2.5235993554   -2.0918934805   -1.3071300057
N        2.2630842238   -1.3430934340   -0.8619744993
O       -1.7780540398    0.0686201235   -1.1759391539
H        6.4400755599    1.3020451895    1.1169018793
H        6.3768958861    0.6810578545   -1.2975992331
H        4.5227401361    0.6847007580    2.5872563205
H       -0.9556942599   -5.0417991347   -1.0415266553
H        0.9971052236   -3.4522881835   -0.7439736752
H        4.4149621955   -0.5055252280   -2.2293615329
H        2.5939422629   -0.5602158303    1.6716180714
H       -3.2357395605   -4.0550751774   -1.4046679174
H        0.8408196507   -0.2340857409    0.2074252533
H        0.8141420336    0.1020586409   -1.5026912276
H       -3.4487169040   -1.6974330715   -1.4453816584
H        2.4448726457   -1.6060947459   -1.8273458492
27   
torsion grid (-105,)
C        5.5375526716    0.8491732263    0.6823789507
C        5.4280917146    0.5831781525   -0.6853123440
C        4.5663805022    0.3481370615    1.5588364428
C       -1.1755952892   -3.9473932242   -0.9940460872
C       -0.0499926888   -3.0829669676   -0.8295281044
C        4.3517304772   -0.1641072460   -1.1755005665
C        3.5059201562   -0.4200582294    1.0767701645
C       -2.3871246215   -3.3894859401   -1.2843135301
C       -0.1587601960   -1.7226208166   -0.9555030470
C        3.3892728986   -0.6860989448   -0.2978245274
C       -1.4492237602   -1.1126844375   -1.2553937362
C        0.9955414996   -0.7681576029   -0.7820153782
N       -2.4995732019   -2.0313091088   -1.4099967161
N        2.2924311484   -1.4647216832   -0.7669657635
O       -1.6644911181    0.0994502788   -1.3736559844
H        6.3679014081    1.4382437775    1.0621715887
H        6.1713634680    0.9713925929   -1.3772955594
H        4.6446294072    0.5440706125    2.6253888727
H       -1.0821878649   -5.0222971765   -0.8916381946
H        0.9236096476   -3.5014244148   -0.5891344283
H        4.2580171143   -0.3459989157   -2.2448071468
H        2.7682201150   -0.8342159742    1.7593699937
H       -3.2959978056   -3.9648558764   -1.4268419560
H        0.8776839926   -0.2326752085    0.1657501454
H        0.9408744298    0.0059323252   -1.5615050729
H       -3.3977917309   -1.6069301421   -1.6188435616
H        2.4944847397   -1.7916883065   -1.7097318484
27   
torsion grid (-90,)
C        5.5015920638    0.9140387792    0.6428514821
C        5.2743361909    0.7264621535   -0.7239298712
C        4.6683508499    0.2804964768    1.5729254368
C       -1.2423010718   -3.9306674831   -0.9288955723
C       -0.0984257071   -3.0945281455   -0.7449275065
C        4.2159159924   -0.0785693377   -1.1585270910
C        3.6263035107   -0.5431800919    1.1412966577
C       -2.4138313222   -3.3507624557   -1.3217470021
C       -0.1485179500   -1.7405661578   -0.9519418272
C        3.3955161578   -0.7348645033   -0.2288279208
C       -1.3970543697   -1.1073981741   -1.3618010285
C        1.0288043673   -0.8178107557   -0.7648000899
N       -2.4689191990   -1.9988708527   -1.5279109244
N        2.2959153199   -1.5584475981   -0.6356503963
O       -1.5623981547    0.1021516385   -1.5596987953
H        6.3183925196    1.5465029625    0.9803721375
H        5.9114712891    1.2188428630   -1.4543784912
H        4.8393312083    0.4183132940    2.6376929096
H       -1.1935674067   -5.0004639703   -0.7620084949
H        0.8431817760   -3.5305779145   -0.4227293466
H        4.0270888204   -0.2028011123   -2.2234773046
H        2.9879253170   -1.0565384391    1.8556988308
H       -3.3332151511   -3.9029275586   -1.4868810318
H        0.8829023467   -0.2277839547    0.1470028468
H        1.0440470099   -0.0857553155   -1.5859690624
H       -3.3374172785   -1.5577383154   -1.8135473100
H        2.5109740709   -1.9655171888   -1.5449318300
27   
torsion grid (-75,)
C        5.4898494627    0.9381482940    0.6198231928
C        5.1189142617    0.8665265928   -0.7273050005
C        4.8040939381    0.1719581720    1.5687486411
C       -1.2964375727   -3.9071113236   -0.8276501286
C       -0.1437790040   -3.0829993162   -0.6444012622
C        4.0636761433    0.0378782455   -1.1209222132
C        3.7594680930   -0.6685798929    1.1721077203
C       -2.4264588346   -3.3389170673   -1.3407542167
C       -0.1468364788   -1.7513346018   -0.9695061343
C        3.3875475322   -0.7483745880   -0.1756884216
C       -1.3505010312   -1.1299028532   -1.5109298024
C        1.0407674342   -0.8408032250   -0.7863790846
N       -2.4339510366   -2.0094295520   -1.6655888062
N        2.2804782576   -1.5961187554   -0.5364120953
O       -1.4710971044    0.0603742725   -1.8245898255
H        6.3064340302    1.5862728683    0.9271747780
H        5.6440482359    1.4626728413   -1.4694717260
H        5.0878398540    0.2227320692    2.6170054303
H       -1.2863795014   -4.9591175927   -0.5671235244
H        0.7646714945   -3.5087245308   -0.2272856497
H        3.7642122778   -0.0034049061   -2.1665133146
H        3.2247499945   -1.2786282777    1.8950376424
H       -3.3486028888   -3.8838436345   -1.5143778099
H        0.8629472804   -0.1859109505    0.0747105192
H        1.1089174313   -0.1678594881   -1.6541331621
H       -3.2715963808   -1.5768697967   -2.0419898840
H        2.5187089113   -2.0943616794   -1.3937880975
27   
torsion grid (-60,)
C        5.5245945769    0.9211318864    0.6319743768
C        5.0052692698    1.0020367636   -0.6651772199
C        4.9662228869    0.0222316501    1.5462491744
C       -1.3342604926   -3.8623550127   -0.6989384773
C       -0.1785451794   -3.0366074402   -0.5444992354
C        3.9331457576    0.1890833414   -1.0441951795
C        3.8952177536   -0.7931015137    1.1645799152
C       -2.4268076629   -3.3399770675   -1.3285855804
C       -0.1414982237   -1.7478229342   -1.0100411880
C        3.3753857752   -0.7209584512   -0.1328562201
C       -1.3054780626   -1.1745601022   -1.6770494670
C        1.0506178827   -0.8358348384   -0.8643495048
N       -2.3943528488   -2.0531243969   -1.7934587324
N        2.2608174668   -1.5747909135   -0.4730800397
O       -1.3900000830   -0.0235045594   -2.1219528046
H        6.3570704471    1.5548419275    0.9267670575
H        5.4338961378    1.6994738805   -1.3806134000
H        5.3635203895   -0.0447540566    2.5560053793
H       -1.3555602193   -4.8801723805   -0.3270170645
H        0.6997516057   -3.4253504757   -0.0367325080
H        3.5295794788    0.2591809806   -2.0518600815
H        3.4480676724   -1.4960999497    1.8617644135
H       -3.3481639046   -3.8896110258   -1.4911960962
H        0.8415623086   -0.0940138508   -0.0844214926
H        1.1611858573   -0.2586000869   -1.7939517244
H       -3.2040911385   -1.6538098189   -2.2574528946
H        2.5321883090   -2.1783817964   -1.2490384661
27   
torsion grid (-45,)
C        5.5124134996    0.8760176030    0.7071677438
C        4.8675246324    1.1629307979   -0.5009671760
C        5.0663966250   -0.1930886043    1.4910925204
C       -1.4046176139   -3.7618990908   -0.4707123156
C       -0.2304598398   -2.9488373090   -0.4290705724
C        3.7888259186    0.3818164075   -0.9259133253
C        3.9778980256   -0.9651208481    1.0730400896
C       -2.4752679021   -3.3225028475   -1.1943665543
C       -0.1538693233   -1.7519669633   -1.0922046074
C        3.3293496862   -0.6850772782   -0.1369713297
C       -1.2937824842   -1.2662071550   -1.8619548220
C        1.0587167124   -0.8532207757   -1.0736355303
N       -2.4026340171   -2.1271059217   -1.8569129432
N        2.2375988747   -1.5347700718   -0.5335152946
O       -1.3430504648   -0.1985362139   -2.4850325128
H        6.3534151397    1.4816784261    1.0347362427
H        5.2103624074    1.9898800260   -1.1180049069
H        5.5596891704   -0.4207944102    2.4328198304
H       -1.4568205806   -4.7066810127    0.0578869861
H        0.6317047981   -3.2709968548    0.1481405937
H        3.2993165458    0.6060719990   -1.8700199590
H        3.6099920359   -1.7886472680    1.6788265128
H       -3.4079158806   -3.8698448546   -1.2839778889
H        0.8494146052    0.0149646764   -0.4380967799
H        1.1940819575   -0.4480521219   -2.0873699784
H       -3.1954771601   -1.7880239395   -2.3924907906
H        2.5620379149   -2.2494941328   -1.1816337674
27   
torsion grid (-30,)
C        5.5185342702    0.8578992738    0.7435898100
C        4.7395215282    1.2907546963   -0.3335690192
C        5.1933187048   -0.3428660966    1.3860754878
C       -1.4612286003   -3.6404974088   -0.3253877543
C       -0.2731999115   -2.8470710332   -0.3361376666
C        3.6530659496    0.5289334243   -0.7753743629
C        4.0923186906   -1.0919654404    0.9667082104
C       -2.4887271170   -3.2847978811   -1.1505972118
C       -0.1428132979   -1.7514039082   -1.1487274435
C        3.3050718983   -0.6621022823   -0.1150138674
C       -1.2383675388   -1.3535055036   -2.0263408650
C        1.0841088046   -0.8725923924   -1.1940017078
N       -2.3641095722   -2.1894848603   -1.9614527109
N        2.2273769385   -1.4899581285   -0.5359086519
O       -1.2383096892   -0.3750764678   -2.7830664039
H        6.3672267972    1.4478186782    1.0792779935
H        4.9879303129    2.2164384380   -0.8470752027
H        5.7895131403   -0.6887774758    2.2269790554
H       -1.5570692608   -4.5054607803    0.3205936416
H        0.5530726630   -3.1030210111    0.3214066748
H        3.0725317729    0.8654569774   -1.6294152681
H        3.8187803068   -2.0108125196    1.4793700016
H       -3.4273991006   -3.8257774583   -1.2104626804
H        0.8638539197    0.0689452764   -0.6776854346
H        1.2627919194   -0.5968619660   -2.2444326057
H       -3.1258044026   -1.9123863363   -2.5726787954
H        2.5400504695   -2.3393963667   -0.9952649252
27   
torsion grid (-15,)
C        5.5571118392    0.8423880420    0.7013070215
C        4.6540485658    1.3540689768   -0.2335293904
C        5.3288434333   -0.4306791018    1.2405564751
C       -1.5281350469   -3.5549025822   -0.2301801326
C       -0.3390745048   -2.7631911323   -0.2366572405
C        3.5411607813    0.6084293301   -0.6374408938
C        4.2073529420   -1.1686374027    0.8653387910
C       -2.4938676449   -3.2839183568   -1.1559669370
C       -0.1466727408   -1.7523697095   -1.1422136689
C        3.2916705701   -0.6562039831   -0.0745103050
C       -1.1786265697   -1.4414211851   -2.1262263603
C        1.0825366932   -0.8777662109   -1.1868323144
N       -2.3078242308   -2.2724962703   -2.0584650121
N        2.1902753029   -1.4534977816   -0.4447422084
O       -1.1249130508   -0.5379708397   -2.9687997784
H        6.4245955495    1.4219546605    1.0046749872
H        4.8231894671    2.3346535101   -0.6719694423
H        6.0209227368   -0.8444467001    1.9700592014
H       -1.6721497728   -4.3522532566    0.4895292593
H        0.4349784550   -2.9534614235    0.5019901813
H        2.8719925545    1.0136870232   -1.3896407081
H        4.0183690277   -2.1442866970    1.3077768031
H       -3.4284348857   -3.8304337786   -1.2281932338
H        0.8381401460    0.0925664400   -0.7384980457
H        1.3151434103   -0.6668943894   -2.2417243350
H       -3.0251003706   -2.0570333814   -2.7438074557
H        2.4462878085   -2.3885354132   -0.7409342347
27   
torsion grid (0,)
C        5.6072362508    0.8357216262    0.6489835823
C        4.6184106238    1.4040537491   -0.1563138839
C        5.4299029348   -0.4746007415    1.1146051550
C       -1.5987671656   -3.4700613409   -0.2421339495
C       -0.4141888498   -2.6729373872   -0.1987401482
C        3.4690051456    0.6847375623   -0.5030502291
C        4.2804206782   -1.1924766402    0.7937362353
C       -2.4832484024   -3.2641830737   -1.2611920156
C       -0.1471140534   -1.7204992605   -1.1480552614
C        3.2773897335   -0.6215604286   -0.0168708945
C       -1.0949029508   -1.4774322340   -2.2312246601
C        1.0785785800   -0.8415566252   -1.1448149030
N       -2.2242356632   -2.3107746901   -2.2075208072
N        2.1350062622   -1.3849457791   -0.3081442397
O       -0.9733108655   -0.6263003906   -3.1195278105
H        6.5004508166    1.3974210155    0.9074880892
H        4.7432571806    2.4147137146   -0.5375770260
H        6.1885733587   -0.9363980986    1.7419166657
H       -1.8019858781   -4.2210400523    0.5122653528
H        0.2924501719   -2.8123707138    0.6151405565
H        2.7333914596    1.1435922602   -1.1547518561
H        4.1403923130   -2.2006695287    1.1788984398
H       -3.4076102013   -3.8205350796   -1.3765097048
H        0.7963592186    0.1431044406   -0.7529872988
H        1.3883648725   -0.6708510315   -2.1867490882
H       -2.8820486890   -2.1431138286   -2.9624042908
H        2.3477784491   -2.3559285242   -0.5085969482
27   
torsion grid (15,)
C        5.6384275114    0.8177681675    0.5886216185
C        4.5851333360    1.4349193434   -0.0890053685
C        5.4953084707   -0.5198351905    0.9820603398
C       -1.6582277184   -3.4198841439   -0.2171131968
C       -0.4757042718   -2.6208503367   -0.1534975657
C        3.4048867697    0.7404494396   -0.3768960807
C        4.3207803944   -1.2174078085    0.7116079904
C       -2.4848136610   -3.2718909155   -1.2931028619
C       -0.1536646164   -1.7232984228   -1.1386570159
C        3.2527780983   -0.5980997433    0.0291196747
C       -1.0401508316   -1.5407691263   -2.2839630694
C        1.0707515198   -0.8443830930   -1.1192497645
N       -2.1707268988   -2.3724251317   -2.2749839270
N        2.0739186747   -1.3310268177   -0.1831018344
O       -0.8676182906   -0.7396959548   -3.2094497986
H        6.5536880973    1.3621881533    0.8029164334
H        4.6791034398    2.4690674374   -0.4115568229
H        6.3034910640   -1.0221185784    1.5082561345
H       -1.9044936158   -4.1271657826    0.5661147804
H        0.1818939292   -2.7140532499    0.7067734327
H        2.6157284940    1.2449954463   -0.9233616593
H        4.2156869327   -2.2513488249    1.0357550623
H       -3.4029773078   -3.8340619657   -1.4280121944
H        0.7607313416    0.1624063170   -0.8157528225
H        1.4513582229   -0.7432504328   -2.1463872183
H       -2.7857178304   -2.2473849859   -3.0729816900
H        2.2620265626   -2.3208391326   -0.3048614413
27   
torsion grid (30,)
C        5.6381996847    0.8184886370    0.5808035279
C        4.5300049560    1.4792725854    0.0444466893
C        5.5403201943   -0.5526749175    0.8484639806
C       -1.7202200455   -3.3256531135   -0.1614119665
C       -0.5230076238   -2.5473195863   -0.1174014198
C        3.3396661018    0.7963050309   -0.2228565317
C        4.3584604947   -1.2431078554    0.5864503885
C       -2.5025260954   -3.2512160148   -1.2773607818
C       -0.1455478635   -1.7402614575   -1.1594979725
C        3.2365894456   -0.5809912271    0.0474506220
C       -0.9843290230   -1.6361516411   -2.3495694758
C        1.0970995601   -0.8872946498   -1.1649875298
N       -2.1327765476   -2.4421860818   -2.3170383967
N        2.0433140441   -1.3020532012   -0.1336420430
O       -0.7592809409   -0.9169962289   -3.3294645759
H        6.5598254575    1.3569959777    0.7822803743
H        4.5865640778    2.5427257619   -0.1749847587
H        6.3903998482   -1.0899189323    1.2620367835
H       -2.0110432038   -3.9613744248    0.6666392466
H        0.1015453708   -2.5822096104    0.7713225165
H        2.5013838452    1.3405960086   -0.6443550704
H        4.2948121129   -2.3083832589    0.8028658652
H       -3.4271333584   -3.8052665867   -1.4014746875
H        0.7945531050    0.1490825503   -0.9809246567
H        1.5329769231   -0.8959401672   -2.1745217079
H       -2.7148996212   -2.3718285055   -3.1457905633
H        2.2302045016   -2.2986331847   -0.1936704823
27   
torsion grid (45,)
C        5.5795876093    0.8722217090    0.6724565763
C        4.3878248080    1.5151650351    0.3210134644
C        5.6051038148   -0.5258106384    0.7116621623
C       -1.8134244562   -3.0850344735   -0.0705638072
C       -0.5511380863   -2.4165772492   -0.0987506166
C        3.2382355095    0.7834638420    0.0162208108
C        4.4642545923   -1.2653569260    0.3965112459
C       -2.5782708333   -3.0771733820   -1.2011235440
C       -0.0965119271   -1.7763252020   -1.2222270518
C        3.2615919681   -0.6238297733    0.0441699826
C       -0.9111381737   -1.7467481277   -2.4320517667
C        1.2210284072   -1.0468977352   -1.3034228230
N       -2.1289369277   -2.4362938259   -2.3235906901
N        2.1044425212   -1.3937823612   -0.1888312626
O       -0.6119775426   -1.1795979433   -3.4893405738
H        6.4692623871    1.4484560140    0.9100843173
H        4.3458874241    2.6012324093    0.2902437781
H        6.5206853731   -1.0474337705    0.9796639608
H       -2.1661467642   -3.5883509000    0.8220375163
H        0.0684206554   -2.4007906071    0.7939299513
H        2.3228378032    1.3115596158   -0.2316147426
H        4.5016110214   -2.3533859071    0.4210504526
H       -3.5482203916   -3.5579304918   -1.2746670793
H        1.0208122515    0.0276952513   -1.2867617579
H        1.6793066829   -1.2448228287   -2.2830839526
H       -2.6952895150   -2.4172012497   -3.1659007472
H        2.3379208831   -2.3821676545   -0.2228809162
27   
torsion grid (60,)
C        5.4960649878    0.9517836509    0.6953147141
C        4.2167662479    1.5024872827    0.5473666403
C        5.6636794139   -0.4272436939    0.5415121200
C       -1.8954020391   -2.8424197560   -0.0148668210
C       -0.5698961378   -2.3124368093   -0.0734432404
C        3.1195257308    0.6917045084    0.2563269003
C        4.5720919648   -1.2418737030    0.2269727049
C       -2.6369794782   -2.8657292342   -1.1607095819
C       -0.0341482446   -1.8321008716   -1.2395550125
C        3.2867932020   -0.6941911015    0.0777764820
C       -0.8199078003   -1.8406249904   -2.4679181333
C        1.3548216097   -1.2545293887   -1.3527922627
N       -2.1055391616   -2.3862394880   -2.3272670429
N        2.1678785971   -1.5264829027   -0.1609928370
O       -0.4432652219   -1.4166863680   -3.5671158440
H        6.3452997785    1.5872185768    0.9305261260
H        4.0680582175    2.5715993004    0.6780145616
H        6.6489618185   -0.8732013642    0.6532170159
H       -2.3130836437   -3.2192074400    0.9115131963
H        0.0390800069   -2.2758220908    0.8258638486
H        2.1267327935    1.1273021801    0.1823056873
H        4.7167771477   -2.3123950360    0.0907903573
H       -3.6504890895   -3.2496122216   -1.2136357751
H        1.2784738373   -0.1724950858   -1.4923371187
H        1.8235298518   -1.6306337410   -2.2736405366
H       -2.6524963193   -2.3927393399   -3.1824668356
H        2.4524411181   -2.5024051043   -0.1580913319
27   
torsion grid (75,)
C        5.5548891679    0.9403887827    0.5911552872
C        4.2765328715    1.5107003035    0.6501328759
C        5.6822561270   -0.4260360163    0.3276918554
C       -1.9579472876   -2.7955563831   -0.0520296453
C       -0.6373241521   -2.2502469298   -0.0499110103
C        3.1397458884    0.7253186121    0.4569698322
C        4.5454558616   -1.2112292677    0.1069912287
C       -2.6179710200   -2.8938053556   -1.2427909470
C       -0.0262790938   -1.8295789188   -1.2022376420
C        3.2634162166   -0.6439205841    0.1653782027
C       -0.7234179346   -1.9190030411   -2.4802171854
C        1.3603541415   -1.2396186619   -1.2503829784
N       -2.0104470116   -2.4731299415   -2.3948189111
N        2.0893275055   -1.4351311889    0.0135443754
O       -0.2760064769   -1.5547083896   -3.5742030668
H        6.4374906932    1.5527561543    0.7545915789
H        4.1643618975    2.5695179882    0.8701084451
H        6.6675883218   -0.8832562022    0.2820203166
H       -2.4350329342   -3.1250545902    0.8636405767
H       -0.0943935937   -2.1518902750    0.8862322207
H        2.1471296857    1.1606156212    0.5401094141
H        4.6528851697   -2.2713748749   -0.1163325612
H       -3.6215287024   -3.2939700621   -1.3435883258
H        1.2846028789   -0.1647956420   -1.4456893644
H        1.8966232055   -1.6546918462   -2.1162924182
H       -2.4964011549   -2.5361065170   -3.2838368688
H        2.3374415014   -2.4192834985    0.0932331451
27   
torsion grid (90,)
C        5.6034721180    0.9180307122    0.5204425695
C        4.3614577280    1.5032981198    0.7960386272
C        5.6612085003   -0.4169863980    0.1094402608
C       -2.0039643738   -2.7328787874   -0.0888837953
C       -0.6953299702   -2.1615635656   -0.0405978882
C        3.1876902857    0.7572959178    0.6696213824
C        4.4838542949   -1.1577172859   -0.0407353420
C       -2.5776238083   -2.9410263676   -1.3098591895
C       -0.0119445033   -1.8231551467   -1.1796028594
C        3.2379505000   -0.5754887578    0.2348831104
C       -0.6173788015   -2.0303000154   -2.4905103172
C        1.3660432569   -1.2121557352   -1.1795621603
N       -1.8987700139   -2.6026692736   -2.4490180983
N        2.0165622681   -1.3189258420    0.1387698495
O       -0.1012047024   -1.7468505446   -3.5780102640
H        6.5172208129    1.4956966532    0.6317772636
H        4.3094123926    2.5365691078    1.1301815708
H        6.6211071684   -0.8815627346   -0.1020469937
H       -2.5388860044   -2.9972238073    0.8158936101
H       -0.2210844125   -1.9765633662    0.9193995825
H        2.2213571826    1.1920399261    0.9115345274
H        4.5304441889   -2.1924522427   -0.3758685032
H       -3.5654940535   -3.3690139206   -1.4453673442
H        1.2885550018   -0.1497457734   -1.4375398607
H        1.9588636373   -1.6661008804   -1.9874496209
H       -2.3203744568   -2.7476189710   -3.3609990396
H        2.2218281662   -2.3033606369    0.3048877943
27   
torsion grid (105,)
C        5.6297357704    0.9141471759    0.4938476046
C        4.4307595164    1.4630461017    0.9619703122
C        5.6293848253   -0.3612431458   -0.0811420015
C       -2.0414982942   -2.6338300641   -0.1119137145
C       -0.7277979979   -2.0756910850   -0.0482280309
C        3.2387378945    0.7393897252    0.8600902474
C        4.4342053755   -1.0779482399   -0.1969146508
C       -2.5541085701   -2.9484103423   -1.3371854350
C        0.0203873405   -1.8533235131   -1.1750820296
C        3.2299215640   -0.5306345649    0.2700969645
C       -0.5183352695   -2.1775357055   -2.4914416320
C        1.4059093407   -1.2596320382   -1.1574951373
N       -1.8102971565   -2.7265214482   -2.4644347079
N        1.9839629040   -1.2506176896    0.1979969505
O        0.0594905624   -2.0073748257   -3.5716722133
H        6.5578691740    1.4729286343    0.5814815098
H        4.4261595482    2.4490930774    1.4198162977
H        6.5579220018   -0.7965420070   -0.4420830347
H       -2.6271180439   -2.8055785655    0.7837758767
H       -0.3014498993   -1.8057813805    0.9140069598
H        2.3030856659    1.1429032185    1.2373983878
H        4.4338045978   -2.0662342385   -0.6529376103
H       -3.5408543613   -3.3747973195   -1.4853849737
H        1.3580560413   -0.2233954987   -1.5124594579
H        2.0288859798   -1.7909091248   -1.8923553701
H       -2.1859216350   -2.9519188613   -3.3801400990
H        2.1566702904   -2.2189502465    0.4673417849
27   
torsion grid (120,)
C        5.6175873645    0.9168606696    0.5088000412
C        4.4648772804    1.3852325985    1.1472835041
C        5.5631989065   -0.2601592705   -0.2465277026
C       -2.1121332282   -2.4891970422   -0.1454502779
C       -0.7856327119   -1.9625822820   -0.0794750562
C        3.2625710571    0.6793088656    1.0306206040
C        4.3600743000   -0.9620604046   -0.3642221913
C       -2.5833032715   -2.9152773718   -1.3535580880
C        0.0144373302   -1.8788220598   -1.1894139107
C        3.1996339317   -0.4951844227    0.2722516947
C       -0.4795148398   -2.3227785989   -2.4884075045
C        1.4166250258   -1.3244922200   -1.1727077544
N       -1.7877330032   -2.8316827980   -2.4640693375
N        1.9386436755   -1.1964758864    0.1966891896
O        0.1474913462   -2.2803834502   -3.5538192717
H        6.5529670510    1.4629265077    0.6001464155
H        4.5017371825    2.2967253368    1.7387136460
H        6.4569738392   -0.6317745172   -0.7416011250
H       -2.7397498519   -2.5516546113    0.7359743044
H       -0.3911972166   -1.6059693415    0.8679832959
H        2.3579081974    1.0255484510    1.5224472809
H        4.3213809523   -1.8759498712   -0.9528583939
H       -3.5759289994   -3.3281696104   -1.5006612562
H        1.4131949467   -0.3265797366   -1.6271250844
H        2.0420590633   -1.9434842182   -1.8325186940
H       -2.1318660453   -3.1405896033   -3.3677122770
H        2.0609480333   -2.1329684908    0.5814208978
27   
torsion grid (135,)
C        5.5717977133    1.0015279703    0.5247810606
C        4.4640786779    1.2698204405    1.3357263559
C        5.5019622127   -0.0276733963   -0.4204152018
C       -2.1475778723   -2.2371845184   -0.2039397164
C       -0.7805608394   -1.8270579186   -0.1381661906
C        3.2944738599    0.5158342668    1.1981099645
C        4.3375399605   -0.7909893452   -0.5474091544
C       -2.6111379822   -2.7696238898   -1.3721484485
C        0.0660615517   -1.9557953461   -1.2081962673
C        3.2246480909   -0.5298337875    0.2678162583
C       -0.4189394959   -2.5146000778   -2.4654191998
C        1.5143938228   -1.5310570470   -1.1930449712
N       -1.7690270703   -2.8986357645   -2.4433086413
N        1.9923180830   -1.2665604496    0.1661663274
O        0.2487802724   -2.6623546738   -3.4963697511
H        6.4785760330    1.5927230834    0.6230769605
H        4.5049010749    2.0752873016    2.0648519376
H        6.3569118051   -0.2396647927   -1.0577583566
H       -2.8111706934   -2.1310061958    0.6464308738
H       -0.3889102820   -1.3907844665    0.7764874025
H        2.4180976124    0.7274152704    1.8044582152
H        4.2941454342   -1.5902021573   -1.2825859835
H       -3.6319592562   -3.1080542590   -1.5163916520
H        1.6216167835   -0.6078652642   -1.7742099695
H        2.0942874729   -2.2899629230   -1.7386926800
H       -2.1062692038   -3.2872202903   -3.3183541405
H        2.0508383778   -2.1337560811    0.6962794835
27   
torsion grid (150,)
C        5.5475718960    1.0252143391    0.5438526126
C        4.5241472500    1.1041997953    1.4967003065
C        5.3992117625    0.1666707709   -0.5488145274
C       -2.1826874732   -2.0010078184   -0.2525439977
C       -0.7936328182   -1.6742256980   -0.1836549305
C        3.3651326439    0.3404817564    1.3509263468
C        4.2513655049   -0.6216924160   -0.6834662193
C       -2.6430546389   -2.6512448046   -1.3608851709
C        0.0772978465   -1.9971015486   -1.1912895793
C        3.2258160855   -0.5532424971    0.2744178711
C       -0.4043630715   -2.6808278586   -2.3868750562
C        1.5504564454   -1.6662936914   -1.1754083203
N       -1.7773519751   -2.9725161476   -2.3708280537
N        2.0104751427   -1.2817403477    0.1518678163
O        0.2841987222   -3.0002289888   -3.3634793408
H        6.4423671988    1.6331573077    0.6472161569
H        4.6171244692    1.7840724728    2.3401504178
H        6.1831008090    0.1013737269   -1.2994686203
H       -2.8648599072   -1.7414634571    0.5486482546
H       -0.4066329454   -1.1451531266    0.6829036299
H        2.5496582268    0.4297527453    2.0642502843
H        4.1585616760   -1.2936226409   -1.5315185901
H       -3.6794425284   -2.9396556822   -1.5025688395
H        1.7307828301   -0.8239409138   -1.8532618745
H        2.0926498123   -2.5181199476   -1.6131194729
H       -2.1119952452   -3.4486220967   -3.2026162157
H        1.9224960711   -2.0283073563    0.8343254451
27   
torsion grid (165,)
C        5.5949215880    0.9915914246    0.5783172364
C        4.6325892498    0.9569639094    1.5967093859
C        5.3541777659    0.2903618323   -0.6051184535
C       -2.2019946307   -1.9199865540   -0.3510093877
C       -0.8183977455   -1.5719632445   -0.2786916597
C        3.4478087513    0.2433011080    1.4262865316
C        4.1793727287   -0.4512154163   -0.7738159678
C       -2.6218476558   -2.7007283137   -1.3889377597
C        0.0872526383   -2.0014452416   -1.2137372237
C        3.2123618078   -0.4904904144    0.2463826710
C       -0.3522760475   -2.8222642162   -2.3376403662
C        1.5557452700   -1.6538815542   -1.1937190954
N       -1.7223791679   -3.1274127732   -2.3274899006
N        1.9817131389   -1.1633485516    0.1057726923
O        0.3676950966   -3.2408411252   -3.2516044838
H        6.5113786806    1.5611728766    0.7052737128
H        4.7955090645    1.5101478213    2.5185786543
H        6.0896586813    0.3073576866   -1.4058169940
H       -2.9108543340   -1.5757239799    0.3929519894
H       -0.4680786218   -0.9382464194    0.5316357524
H        2.6857059993    0.2514925543    2.2024355941
H        4.0275561738   -1.0062015999   -1.6938526426
H       -3.6509343656   -3.0156716234   -1.5271340711
H        1.7384484541   -0.8655393968   -1.9336355689
H        2.1204551590   -2.5298338938   -1.5471555703
H       -2.0273437617   -3.6995821717   -3.1086665541
H        1.7731841913   -1.7945185420    0.8716685707
27   
torsion grid (180,)
C        5.6610924888    0.9137585164    0.6093126009
C        4.7416322732    0.8070879796    1.6622592444
C        5.3307357075    0.3656956746   -0.6313755440
C       -2.2371310292   -1.8757195944   -0.4159148830
C       -0.8664660125   -1.4794819490   -0.3466924236
C        3.5150089547    0.1760926547    1.4715131753
C        4.1092634900   -0.2885125061   -0.8292888898
C       -2.6073110414   -2.7667941888   -1.3813498083
C        0.0745136865   -1.9710678132   -1.2142689515
C        3.1822902862   -0.3915976291    0.2238104742
C       -0.3124947644   -2.9090095429   -2.2636292129
C        1.5302954181   -1.5777723667   -1.1966690361
N       -1.6728373910   -3.2550358223   -2.2531205208
N        1.9159435925   -0.9806891199    0.0713585732
O        0.4416303131   -3.3893911803   -3.1173458329
H        6.6136371124    1.4148497579    0.7566778124
H        4.9763517038    1.2326010471    2.6349945927
H        6.0324965621    0.4337446571   -1.4591788324
H       -2.9743218273   -1.4823770299    0.2741633421
H       -0.5582795392   -0.7576929595    0.4051401259
H        2.7957268417    0.1228622640    2.2865064327
H        3.8936273855   -0.7249358530   -1.7984682519
H       -3.6230945695   -3.1255083226   -1.5109089951
H        1.6982775537   -0.8426769833   -1.9930252066
H        2.1331106966   -2.4569278476   -1.4690397745
H       -1.9416110473   -3.9093284914   -2.9813462790
H        1.6408654776   -1.5367203491    0.8739042280
