43
0 1 C16H21N3O3
C                     2.888751690765     5.058369025662     6.658445613092
C                     3.913042943304     4.088005952782     6.662618074854
C                     1.743678089438     4.873042133430     5.884977595526
C                     3.816013872514     2.912925251889     5.915406798587
C                     1.646463594954     3.705474441860     5.122325737892
C                     2.657333177729     2.734055517568     5.151698412193
C                     0.599856526683     3.233330389884     4.200607687570
C                     1.081975521455     0.471730648156     1.817023289112
C                    -1.625618415608    -1.382552611621     0.003207538869
C                    -1.120956556330    -0.334163057542     0.991051060135
C                     0.991942914239    -0.776518099756    -0.286154709254
C                     0.170765803390    -0.394965577257    -1.522552575868
C                    -1.213109999971    -1.120916698702    -1.462210651996
C                     0.123747958421     1.133075174838    -1.688240643457
C                    -2.315454621203    -0.382285178930    -2.226637242992
C                     0.316057264571     1.061192589225     3.008320906090
N                     2.293523956520     1.629227732275     4.364888768208
N                     1.106144325275     2.037698282373     3.703332718811
N                     0.345990824380    -0.239574340377     0.922172825217
O                    -0.495499907307     3.712755533980     3.900962039255
O                     2.307243029168     0.621865493718     1.721855075275
O                    -1.065870251178    -2.450113446401    -2.011562278147
H                     3.000508356006     5.954985417410     7.261488987816
H                     4.799440822570     4.255659400407     7.269096206559
H                     0.945010552557     5.608969197815     5.858312975018
H                     4.604562249936     2.165673535898     5.935047332471
H                    -1.227559675843    -2.360591474026     0.286675366712
H                    -2.714616489073    -1.448755712861     0.082138833722
H                    -1.580266309371     0.641561734088     0.782227630812
H                    -1.428687767835    -0.624962672680     1.999353720680
H                     1.082493850533    -1.865876368273    -0.211067839210
H                     1.996990441716    -0.357935301252    -0.327091180925
H                     0.696352985902    -0.804972693930    -2.394092349707
H                    -0.417761224425     1.628932641895    -0.877960958283
H                    -0.347419227133     1.425222514372    -2.630032274542
H                     1.141930320446     1.535124662203    -1.687455280975
H                    -2.020823191548    -0.187404944679    -3.264836743740
H                    -2.558492680429     0.580001400856    -1.766524347115
H                    -3.220124232831    -0.997166152605    -2.238275596140
H                     0.021080525619     0.243377584616     3.682356668649
H                    -0.591549037154     1.584213124679     2.698538111582
H                     2.968079799733     1.334243754178     3.654712302994
H                    -0.913751800718    -2.363547113960    -2.966898861411
