
  -OEChem-12102412483D

 35 36  0     1  0  0  0  0  0999 V2000
   -0.8679   -6.0587   -0.8213 C   0  0  0  0  0  0  0  0  0  0  0  0
   -1.5909   -5.8378   -2.0107 C   0  0  0  0  0  0  0  0  0  0  0  0
   -0.8275   -1.8292   -0.9333 C   0  0  0  0  0  0  0  0  0  0  0  0
    1.1496    1.3424   -1.1649 C   0  0  0  0  0  0  0  0  0  0  0  0
    0.7217   -0.0217   -1.7275 C   0  0  0  0  0  0  0  0  0  0  0  0
   -1.2989    0.5138   -0.3939 C   0  0  0  0  0  0  0  0  0  0  0  0
   -0.5348    1.3059    0.6953 C   0  0  2  0  0  0  0  0  0  0  0  0
    0.9887    1.3969    0.3590 C   0  0  1  0  0  0  0  0  0  0  0  0
   -0.8439    0.7655    2.0972 C   0  0  0  0  0  0  0  0  0  0  0  0
    1.8411    0.3121    1.0337 C   0  0  0  0  0  0  0  0  0  0  0  0
    0.1139   -2.8178   -1.6513 C   0  0  0  0  0  0  0  0  0  0  0  0
   -0.1204   -4.9782   -0.5698 N   0  0  0  0  0  0  0  0  0  0  0  0
   -1.2807   -4.6239   -2.4792 N   0  0  0  0  0  0  0  0  0  0  0  0
   -0.3973   -4.1641   -1.5906 N   0  0  0  0  0  0  0  0  0  0  0  0
   -0.4581   -0.5151   -1.0066 N   0  0  0  0  0  0  0  0  0  0  0  0
   -1.8254   -2.2262   -0.3403 O   0  0  0  0  0  0  0  0  0  0  0  0
    1.4991    2.6912    0.7362 O   0  0  0  0  0  0  0  0  0  0  0  0
   -0.8469   -6.9162   -0.1626 H   0  0  0  0  0  0  0  0  0  0  0  0
   -2.2892   -6.4757   -2.5353 H   0  0  0  0  0  0  0  0  0  0  0  0
    2.1927    1.5355   -1.4312 H   0  0  0  0  0  0  0  0  0  0  0  0
    0.5556    2.1498   -1.6044 H   0  0  0  0  0  0  0  0  0  0  0  0
    0.5148    0.0655   -2.8032 H   0  0  0  0  0  0  0  0  0  0  0  0
    1.5437   -0.7310   -1.6105 H   0  0  0  0  0  0  0  0  0  0  0  0
   -2.1741    0.0143    0.0194 H   0  0  0  0  0  0  0  0  0  0  0  0
   -1.6460    1.1908   -1.1840 H   0  0  0  0  0  0  0  0  0  0  0  0
   -0.8920    2.3405    0.6408 H   0  0  0  0  0  0  0  0  0  0  0  0
   -0.6011   -0.2975    2.1842 H   0  0  0  0  0  0  0  0  0  0  0  0
   -1.9108    0.8770    2.3152 H   0  0  0  0  0  0  0  0  0  0  0  0
   -0.2954    1.3052    2.8784 H   0  0  0  0  0  0  0  0  0  0  0  0
    1.8483    0.4382    2.1206 H   0  0  0  0  0  0  0  0  0  0  0  0
    2.8748    0.3869    0.6824 H   0  0  0  0  0  0  0  0  0  0  0  0
    1.4683   -0.6950    0.8292 H   0  0  0  0  0  0  0  0  0  0  0  0
    1.0978   -2.8208   -1.1776 H   0  0  0  0  0  0  0  0  0  0  0  0
    0.2324   -2.5491   -2.7028 H   0  0  0  0  0  0  0  0  0  0  0  0
    1.4334    2.7685    1.7018 H   0  0  0  0  0  0  0  0  0  0  0  0
  1  2  1  0  0  0  0
  1 12  2  0  0  0  0
  1 18  1  0  0  0  0
  2 13  2  0  0  0  0
  2 19  1  0  0  0  0
  3 11  1  0  0  0  0
  3 15  1  0  0  0  0
  3 16  2  0  0  0  0
  4  5  1  0  0  0  0
  4  8  1  0  0  0  0
  4 20  1  0  0  0  0
  4 21  1  0  0  0  0
  5 15  1  0  0  0  0
  5 22  1  0  0  0  0
  5 23  1  0  0  0  0
  6  7  1  0  0  0  0
  6 15  1  0  0  0  0
  6 24  1  0  0  0  0
  6 25  1  0  0  0  0
  7  8  1  0  0  0  0
  7  9  1  0  0  0  0
  7 26  1  0  0  0  0
  8 10  1  0  0  0  0
  8 17  1  0  0  0  0
  9 27  1  0  0  0  0
  9 28  1  0  0  0  0
  9 29  1  0  0  0  0
 10 30  1  0  0  0  0
 10 31  1  0  0  0  0
 10 32  1  0  0  0  0
 11 14  1  0  0  0  0
 11 33  1  0  0  0  0
 11 34  1  0  0  0  0
 12 14  1  0  0  0  0
 13 14  1  0  0  0  0
 17 35  1  0  0  0  0
M  END
$$$$
