35
0 1 C11H18N4O2
C                     3.980567754588     0.767544376119    -1.917551464830
C                     4.583527984989     0.944646277549    -0.657200005477
C                     1.461690227377    -2.267212625301    -0.448983732918
C                     0.845752068762     1.054909943374     0.475304134234
C                     1.105416002805    -0.315363359786     1.110433184857
C                    -0.753501330599    -1.289463116995    -0.145548625430
C                    -1.071374435017     0.058525475470    -0.815331972842
C                    -0.628303421329     1.249818657943     0.066324314572
C                    -2.543994076832     0.115106944371    -1.234508423508
C                    -1.525216803203     1.459364699915     1.295105045662
C                     2.984990668229    -2.157287034920    -0.255675043855
N                     3.316608960191    -0.394946299332    -1.913014447596
N                     4.283875129280    -0.111629419289     0.109946688677
N                     3.530126630590    -0.876179795418    -0.687605485523
N                     0.662332987378    -1.379655657440     0.212198759703
O                     1.025939639550    -3.155437737601    -1.180914546260
O                    -0.727374766895     2.407168831885    -0.789629354168
H                     3.988788665434     1.399436634956    -2.795184349118
H                     5.196179572117     1.751310407056    -0.278393108352
H                     1.147212249857     1.843942338023     1.176645424988
H                     1.462861360045     1.156661328091    -0.422012205502
H                     2.158241787027    -0.424459173842     1.359671317121
H                     0.546458016370    -0.414118622512     2.050066757193
H                    -1.358635008223    -1.425277093710     0.760696785970
H                    -0.980388853729    -2.112370039353    -0.822236068533
H                    -0.455025359715     0.120456941846    -1.720300172710
H                    -3.216001323222    -0.078575671892    -0.391176589053
H                    -2.748265365036    -0.642694644286    -1.998069217086
H                    -2.789038156904     1.094727887883    -1.651779688045
H                    -2.541582542198     1.714307574181     0.987263103826
H                    -1.140470294063     2.283940710697     1.907709080927
H                    -1.574289009355     0.573950164200     1.935750763415
H                     3.420570310650    -2.953583344596    -0.859637789897
H                     3.285484127228    -2.289207129923     0.784446888906
H                    -0.473210317597     3.185908348778    -0.268272139105
