43
0 1 C16H21N3O3
C                    -7.165788040698     0.180479745401     1.466045207651
C                    -7.129913725850     1.373941543710     2.215633272777
C                    -6.300796009324    -0.005004614093     0.387389442384
C                    -6.228030274571     2.399341120874     1.920156133271
C                    -5.407736032397     1.023808002618     0.078433196220
C                    -5.362604386678     2.193410126558     0.843213870271
C                    -4.383058655123     1.135409740647    -0.977440442356
C                    -1.364610344991     1.839298998503    -1.306352511479
C                     1.030460585673     0.527301457378     0.764951720001
C                    -0.062561150215     0.090289311081    -0.227532468439
C                    -1.898726911621     1.124435414939     1.048546095281
C                    -0.996573574673     0.749224303420     2.243797057615
C                     0.456647959921     1.238267910083     2.022566671704
C                    -1.641244394210     1.235433361771     3.545341443791
C                     0.551722493516     2.759153075019     1.881660211021
C                    -2.554930915627     2.822614080497    -1.346704374626
N                    -4.328290443684     3.040882852063     0.381046787838
N                    -3.834877807092     2.404081770791    -0.797774343959
N                    -1.174480074176     1.039073537455    -0.221104134811
O                    -4.010173071066     0.327007433339    -1.821755662697
O                    -0.598059456751     1.858640584306    -2.270951055916
O                     1.265377356955     0.933991865923     3.175834243465
H                    -7.876081184195    -0.596292592254     1.734261772566
H                    -7.814283774281     1.497182285774     3.050823170793
H                    -6.313319040932    -0.913008359654    -0.208743692901
H                    -6.194480677545     3.308609562926     2.514197261706
H                     1.590441254693    -0.361090128780     1.081304683505
H                     1.746523935684     1.188753221822     0.269127739279
H                     0.324270311843     0.029150620959    -1.243016211903
H                    -0.460737160941    -0.895019244966     0.041692369565
H                    -2.769773264754     0.457138517779     1.043549434722
H                    -2.266209622816     2.140567516904     1.192997249511
H                    -0.942992418845    -0.348193783816     2.297899929255
H                    -1.774386422894     2.321818231167     3.547100116625
H                    -1.026684176010     0.969826354894     4.408710255822
H                    -2.631056502325     0.782778705375     3.671935301375
H                     0.141912580023     3.263605851089     2.760221145134
H                     0.025154168829     3.106998342724     0.989998616623
H                     1.603240368636     3.044209768019     1.788338730397
H                    -2.671015996446     3.056465110044    -2.406098798522
H                    -2.261858484369     3.741818967702    -0.831677854705
H                    -4.663341709299     3.977476994545     0.148860290499
H                     1.288559594534    -0.031290290801     3.278407530350
