
  -OEChem-12102412483D

 43 45  0     1  0  0  0  0  0999 V2000
    2.8888    5.0584    6.6584 C   0  0  0  0  0  0  0  0  0  0  0  0
    3.9130    4.0880    6.6626 C   0  0  0  0  0  0  0  0  0  0  0  0
    1.7437    4.8730    5.8850 C   0  0  0  0  0  0  0  0  0  0  0  0
    3.8160    2.9129    5.9154 C   0  0  0  0  0  0  0  0  0  0  0  0
    1.6465    3.7055    5.1223 C   0  0  0  0  0  0  0  0  0  0  0  0
    2.6573    2.7341    5.1517 C   0  0  0  0  0  0  0  0  0  0  0  0
    0.5999    3.2333    4.2006 C   0  0  0  0  0  0  0  0  0  0  0  0
    1.0820    0.4717    1.8170 C   0  0  0  0  0  0  0  0  0  0  0  0
   -1.6256   -1.3826    0.0032 C   0  0  0  0  0  0  0  0  0  0  0  0
   -1.1210   -0.3342    0.9911 C   0  0  0  0  0  0  0  0  0  0  0  0
    0.9919   -0.7765   -0.2862 C   0  0  0  0  0  0  0  0  0  0  0  0
    0.1708   -0.3950   -1.5226 C   0  0  1  0  0  0  0  0  0  0  0  0
   -1.2131   -1.1209   -1.4622 C   0  0  2  0  0  0  0  0  0  0  0  0
    0.1237    1.1331   -1.6882 C   0  0  0  0  0  0  0  0  0  0  0  0
   -2.3155   -0.3823   -2.2266 C   0  0  0  0  0  0  0  0  0  0  0  0
    0.3161    1.0612    3.0083 C   0  0  0  0  0  0  0  0  0  0  0  0
    2.2935    1.6292    4.3649 N   0  0  0  0  0  0  0  0  0  0  0  0
    1.1061    2.0377    3.7033 N   0  0  0  0  0  0  0  0  0  0  0  0
    0.3460   -0.2396    0.9222 N   0  0  0  0  0  0  0  0  0  0  0  0
   -0.4955    3.7128    3.9010 O   0  0  0  0  0  0  0  0  0  0  0  0
    2.3072    0.6219    1.7219 O   0  0  0  0  0  0  0  0  0  0  0  0
   -1.0659   -2.4501   -2.0116 O   0  0  0  0  0  0  0  0  0  0  0  0
    3.0005    5.9550    7.2615 H   0  0  0  0  0  0  0  0  0  0  0  0
    4.7994    4.2557    7.2691 H   0  0  0  0  0  0  0  0  0  0  0  0
    0.9450    5.6090    5.8583 H   0  0  0  0  0  0  0  0  0  0  0  0
    4.6046    2.1657    5.9350 H   0  0  0  0  0  0  0  0  0  0  0  0
   -1.2276   -2.3606    0.2867 H   0  0  0  0  0  0  0  0  0  0  0  0
   -2.7146   -1.4488    0.0821 H   0  0  0  0  0  0  0  0  0  0  0  0
   -1.5803    0.6416    0.7822 H   0  0  0  0  0  0  0  0  0  0  0  0
   -1.4287   -0.6250    1.9994 H   0  0  0  0  0  0  0  0  0  0  0  0
    1.0825   -1.8659   -0.2111 H   0  0  0  0  0  0  0  0  0  0  0  0
    1.9970   -0.3579   -0.3271 H   0  0  0  0  0  0  0  0  0  0  0  0
    0.6964   -0.8050   -2.3941 H   0  0  0  0  0  0  0  0  0  0  0  0
   -0.4178    1.6289   -0.8780 H   0  0  0  0  0  0  0  0  0  0  0  0
   -0.3474    1.4252   -2.6300 H   0  0  0  0  0  0  0  0  0  0  0  0
    1.1419    1.5351   -1.6875 H   0  0  0  0  0  0  0  0  0  0  0  0
   -2.0208   -0.1874   -3.2648 H   0  0  0  0  0  0  0  0  0  0  0  0
   -2.5585    0.5800   -1.7665 H   0  0  0  0  0  0  0  0  0  0  0  0
   -3.2201   -0.9972   -2.2383 H   0  0  0  0  0  0  0  0  0  0  0  0
    0.0211    0.2434    3.6824 H   0  0  0  0  0  0  0  0  0  0  0  0
   -0.5915    1.5842    2.6985 H   0  0  0  0  0  0  0  0  0  0  0  0
    2.9681    1.3342    3.6547 H   0  0  0  0  0  0  0  0  0  0  0  0
   -0.9138   -2.3635   -2.9669 H   0  0  0  0  0  0  0  0  0  0  0  0
  1  2  1  0  0  0  0
  1  3  2  0  0  0  0
  1 23  1  0  0  0  0
  2  4  2  0  0  0  0
  2 24  1  0  0  0  0
  3  5  1  0  0  0  0
  3 25  1  0  0  0  0
  4  6  1  0  0  0  0
  4 26  1  0  0  0  0
  5  6  2  0  0  0  0
  5  7  1  0  0  0  0
  6 17  1  0  0  0  0
  7 18  1  0  0  0  0
  7 20  2  0  0  0  0
  8 16  1  0  0  0  0
  8 19  1  0  0  0  0
  8 21  2  0  0  0  0
  9 10  1  0  0  0  0
  9 13  1  0  0  0  0
  9 27  1  0  0  0  0
  9 28  1  0  0  0  0
 10 19  1  0  0  0  0
 10 29  1  0  0  0  0
 10 30  1  0  0  0  0
 11 12  1  0  0  0  0
 11 19  1  0  0  0  0
 11 31  1  0  0  0  0
 11 32  1  0  0  0  0
 12 13  1  0  0  0  0
 12 14  1  0  0  0  0
 12 33  1  0  0  0  0
 13 15  1  0  0  0  0
 13 22  1  0  0  0  0
 14 34  1  0  0  0  0
 14 35  1  0  0  0  0
 14 36  1  0  0  0  0
 15 37  1  0  0  0  0
 15 38  1  0  0  0  0
 15 39  1  0  0  0  0
 16 18  1  0  0  0  0
 16 40  1  0  0  0  0
 16 41  1  0  0  0  0
 17 18  1  0  0  0  0
 17 42  1  0  0  0  0
 22 43  1  0  0  0  0
M  END
$$$$
