23   
torsion grid (-165,)
C        3.6691641099   -0.4280352022   -5.4862558423
C        2.9311262861    0.1673860483   -4.2807511976
C        2.8698428268   -0.7453583041   -3.0406101605
H        3.9042286331   -1.0127267170   -2.7751063098
C        2.1032529369   -2.0451673227   -3.3283806768
C        2.2672277848    0.0241013277   -1.8501904957
C        2.3525351675   -0.6900919924   -0.4948660806
C        1.8020721824    0.1604654944    0.6584403611
H        3.7549865185    0.3076235552   -6.2933749587
H        3.1524882324   -1.3017397964   -5.8954078520
H        4.6840574552   -0.7398422050   -5.2117247454
H        3.4228809822    1.1063533993   -3.9955330883
H        1.9073111145    0.4377069171   -4.5750585787
H        2.0848813090   -2.7062744356   -2.4570172105
H        1.0635843396   -1.8263647468   -3.6041602483
H        2.5549870503   -2.6083484861   -4.1503902723
H        1.2165521203    0.2622648738   -2.0730567191
H        2.7831864539    0.9896801238   -1.7610218393
H        3.4046011862   -0.9347803903   -0.2953704840
H        1.8176431825   -1.6457431815   -0.5271423316
H        2.1046758734   -0.2389168747    1.6324912372
H        0.7083589189    0.2178922451    0.6319218376
H        2.1864264175    1.1861927812    0.6024766166
23   
torsion grid (-150,)
C        3.7467202811   -0.3462981028   -5.4546604355
C        3.0081583165    0.2568788236   -4.2533287722
C        2.8937031213   -0.6708708612   -3.0281545048
H        3.9139493806   -0.9725645768   -2.7451293067
C        2.0953360015   -1.9430370165   -3.3512279582
C        2.2885425137    0.0990630328   -1.8395547285
C        2.3456173594   -0.6273176106   -0.4886907509
C        1.7659652808    0.2112819165    0.6653449383
H        3.8751044265    0.3984629394   -6.2476578057
H        3.2060317280   -1.1935150325   -5.8877685716
H        4.7439683819   -0.7000226964   -5.1665693236
H        3.5264512268    1.1742244888   -3.9456653939
H        1.9995266699    0.5663144364   -4.5612419482
H        2.0317838594   -2.6120557134   -2.4880444070
H        1.0711793183   -1.6887087149   -3.6532412761
H        2.5520490925   -2.5118873968   -4.1665537824
H        1.2451786917    0.3574797312   -2.0743175996
H        2.8196521584    1.0545077053   -1.7338283772
H        3.3959396886   -0.8653503963   -0.2744699116
H        1.8229806358   -1.5882335692   -0.5417644346
H        2.2486655796   -0.0239452179    1.6196740653
H        0.6858655475    0.0698989124    0.7746802841
H        1.9380296020    1.2802824804    0.4902558671
23   
torsion grid (-135,)
C        3.6378823000   -0.6244451544   -5.4777734996
C        2.9087969714    0.0001741684   -4.2816031421
C        2.8073469565   -0.9041244458   -3.0378359359
H        3.8304013246   -1.2016928067   -2.7606391805
C        2.0041211504   -2.1812900813   -3.3276846828
C        2.2166599364   -0.1109451709   -1.8574463102
C        2.2792239612   -0.8152883389   -0.4947727642
C        1.7235393120    0.0521386811    0.6570997454
H        3.7557495005    0.1046746740   -6.2867807952
H        3.0962506835   -1.4821192596   -5.8885442823
H        4.6392019362   -0.9687209523   -5.1923924691
H        3.4279794648    0.9242286086   -3.9963418427
H        1.8968310709    0.3017378413   -4.5863381739
H        1.9549860889   -2.8367965049   -2.4532787029
H        0.9750739908   -1.9317445214   -3.6167951727
H        2.4475550612   -2.7627963156   -4.1413983271
H        1.1728024810    0.1496723247   -2.0869205505
H        2.7544422514    0.8429339712   -1.7723417179
H        3.3268297332   -1.0723267075   -0.2922963848
H        1.7398749958   -1.7671791400   -0.5317595009
H        2.3726356360    0.0259032017    1.5381723848
H        0.7198137411   -0.2592882293    0.9624933884
H        1.6564349400    1.1042383874    0.3563165643
23   
torsion grid (-120,)
C        3.7421841434   -0.4679628468   -5.4620147611
C        2.9923086170    0.1458792998   -4.2731385784
C        2.8627067124   -0.7723496494   -3.0422452177
H        3.8784567166   -1.0823210489   -2.7521588377
C        2.0534283210   -2.0389710188   -3.3600511672
C        2.2604703462    0.0125971047   -1.8623787558
C        2.2620812033   -0.7201662763   -0.5130985026
C        1.7320883350    0.1561329216    0.6479418629
H        3.8778427215    0.2696261470   -6.2604899032
H        3.2058579039   -1.3192210193   -5.8926372180
H        4.7367520395   -0.8187311308   -5.1613697595
H        3.5096457704    1.0642660243   -3.9669793168
H        1.9878037438    0.4554326725   -4.5940974207
H        1.9932351825   -2.7088910695   -2.4973589925
H        1.0283150638   -1.7779509880   -3.6530907358
H        2.4997616340   -2.6094048620   -4.1799896719
H        1.2301990642    0.3047086308   -2.1132878172
H        2.8203791328    0.9505099608   -1.7450567606
H        3.2847652825   -1.0527805323   -0.2961800392
H        1.6611811801   -1.6319978164   -0.5874346227
H        2.4820310019    0.2914455810    1.4336974689
H        0.8447511378   -0.2794113010    1.1180382036
H        1.4516347368    1.1552441635    0.2965967481
23   
torsion grid (-105,)
C        3.8703966497   -0.2046016669   -5.4244218360
C        3.1212192553    0.3786167041   -4.2197881425
C        2.9717419473   -0.5789930567   -3.0216530202
H        3.9809373139   -0.9166425416   -2.7398557229
C        2.1415754811   -1.8197644348   -3.3841951291
C        2.3802083206    0.1754808941   -1.8167368519
C        2.3343022254   -0.6139207083   -0.5006534107
C        1.8607353734    0.2445847661    0.6944698019
H        4.0193504013    0.5572373373   -6.1973524104
H        3.3264165368   -1.0346272710   -5.8858219185
H        4.8589911205   -0.5771264520   -5.1303480875
H        3.6487182189    1.2790705123   -3.8795634964
H        2.1229490305    0.7123769455   -4.5359131249
H        2.0740764249   -2.5209159880   -2.5472388434
H        1.1195746887   -1.5321182750   -3.6629493962
H        2.5761954455   -2.3653084722   -4.2270504664
H        1.3634818528    0.5119701028   -2.0662872205
H        2.9694535430    1.0888005091   -1.6547418801
H        3.3261808239   -1.0344039126   -0.2937635093
H        1.6633854375   -1.4711019705   -0.6191756680
H        2.6911716551    0.5176533321    1.3537084046
H        1.1368791152   -0.2941186196    1.3151916610
H        1.3766749940    1.1685004814    0.3605480613
23   
torsion grid (-90,)
C        3.9796099158    0.0490581277   -5.3593623482
C        3.2357661080    0.5988692321   -4.1358659981
C        3.0681644652   -0.3998502824   -2.9743424913
H        4.0710762097   -0.7642582758   -2.7037848654
C        2.2185481058   -1.6126655488   -3.3832565131
C        2.4864922160    0.3187426523   -1.7428338414
C        2.4132062369   -0.5222390208   -0.4607592310
C        1.9767050103    0.3034023039    0.7640872166
H        4.1418526484    0.8362953227   -6.1036366685
H        3.4247725516   -0.7554675648   -5.8519615177
H        4.9618198406   -0.3485155746   -5.0769302143
H        3.7758257325    1.4779987926   -3.7612807752
H        2.2436363591    0.9593131277   -4.4418793006
H        2.1398789515   -2.3435908019   -2.5731636173
H        1.2012221621   -1.2986487523   -3.6504763124
H        2.6446262111   -2.1327979745   -4.2463037472
H        1.4790611071    0.6876052248   -1.9837260093
H        3.0949556100    1.2116859869   -1.5418776416
H        3.3856080449   -0.9929705607   -0.2682926493
H        1.7030924892   -1.3429473235   -0.6108206936
H        2.8370442064    0.7386435323    1.2840478766
H        1.4572112509   -0.3215446783    1.4991561041
H        1.2956083472    1.1136221652    0.4823553099
23   
torsion grid (-75,)
C        4.3440689515    0.8280907165   -5.1289242873
C        3.5973291315    1.3205664855   -3.8829820237
C        3.3806358290    0.2545427681   -2.7915778399
H        4.3678407653   -0.1555630620   -2.5288218946
C        2.5049138798   -0.9041302278   -3.2920439736
C        2.7966775567    0.9089555595   -1.5256216676
C        2.6855460869   -0.0082640115   -0.3003643634
C        2.2459487366    0.7474580426    0.9617364245
H        4.5425426700    1.6564396318   -5.8177277602
H        3.7730325432    0.0751515799   -5.6809680450
H        5.3088758516    0.3821724743   -4.8589552014
H        4.1575206810    2.1563029089   -3.4441338947
H        2.6216855153    1.7308869687   -4.1790287786
H        2.3872933949   -1.6807664295   -2.5306718767
H        1.5032744289   -0.5431882947   -3.5592407227
H        2.9341040203   -1.3829427832   -4.1771818406
H        1.8023786610    1.3170330055   -1.7580613301
H        3.4227989285    1.7722676100   -1.2601182673
H        3.6488556424   -0.5027765644   -0.1189954310
H        1.9647729042   -0.8079388073   -0.5058779138
H        3.0652780326    1.3489636077    1.3716736158
H        1.9349768972    0.0537519997    1.7510740678
H        1.4015272059    1.4142393390    0.7540393826
23   
torsion grid (-60,)
C        4.2493121371    0.5594110543   -5.2135681166
C        3.5145911763    1.0827659042   -3.9730819465
C        3.2741098574    0.0342344969   -2.8697330359
H        4.2521997107   -0.3932390071   -2.6006027023
C        2.3750944107   -1.1113930963   -3.3587243843
C        2.7017915745    0.7154531986   -1.6124959340
C        2.5903534751   -0.1798897003   -0.3716473259
C        2.1315326538    0.5921767977    0.8711891058
H        4.4693644317    1.3757902285   -5.9100602917
H        3.6595561298   -0.1839226707   -5.7588971974
H        5.2022285166    0.0915716012   -4.9384911576
H        4.0938681306    1.9103929690   -3.5437537086
H        2.5484108020    1.5118660346   -4.2734993540
H        2.2376611967   -1.8755008688   -2.5880572395
H        1.3826335464   -0.7320088501   -3.6344069308
H        2.7968579633   -1.6108309228   -4.2360015218
H        1.7111497969    1.1305188086   -1.8493507276
H        3.3377146963    1.5759346401   -1.3626762473
H        3.5651444926   -0.6460186303   -0.1742222924
H        1.8899793661   -1.0014356718   -0.5605924413
H        2.8336078104    1.3968941505    1.1188649011
H        2.0538804858   -0.0639987219    1.7450075188
H        1.1486109426    1.0502075223    0.7098281289
23   
torsion grid (-45,)
C        4.3662687297    0.7395557782   -5.1523936163
C        3.6460244614    1.2562083402   -3.9006649567
C        3.3607940904    0.1876696626   -2.8275150229
H        4.3216375329   -0.2795502858   -2.5622222295
C        2.4280037697   -0.9131890157   -3.3547331840
C        2.8002344611    0.8542114706   -1.5571854185
C        2.6814430201   -0.0617994908   -0.3320927845
C        2.1854822133    0.6818893836    0.9159025871
H        4.6217702841    1.5660013723   -5.8244812383
H        3.7507414295    0.0356284721   -5.7210161731
H        5.2986872505    0.2270940915   -4.8867157437
H        4.2541529634    2.0491692845   -3.4465508209
H        2.6981743931    1.7296881043   -4.1927092680
H        2.2497086875   -1.6876709711   -2.6030177624
H        1.4549674363   -0.4911085625   -3.6373830677
H        2.8449701105   -1.4096675432   -4.2359722831
H        1.8158878453    1.2890386045   -1.7859197297
H        3.4491213922    1.6994795630   -1.2907535218
H        3.6677907935   -0.5002639468   -0.1280807594
H        2.0108788776   -0.9025910050   -0.5411267585
H        2.7040680860    1.6400356013    1.0376997464
H        2.3289718937    0.0915932712    1.8268266254
H        1.1164277312    0.9119375341    0.8341384059
23   
torsion grid (-30,)
C        4.5264051187    0.9402280847   -5.0745582738
C        3.8082727068    1.4528787648   -3.8199764466
C        3.4675886310    0.3698263602   -2.7779622079
H        4.4067985202   -0.1375921533   -2.5089134978
C        2.5053790290   -0.6838810475   -3.3471662854
C        2.9094518815    1.0251808119   -1.5009473432
C        2.7563822646    0.0886804084   -0.2947137939
C        2.2368179611    0.8140523404    0.9602697035
H        4.8226100946    1.7727169583   -5.7220296170
H        3.8929149910    0.2745889475   -5.6689665853
H        5.4348616304    0.3861445278   -4.8093957910
H        4.4392808582    2.2107046007   -3.3379604169
H        2.8832043802    1.9690690431   -4.1127099590
H        2.2816491312   -1.4659122149   -2.6156742460
H        1.5553672315   -0.2191925270   -3.6410005774
H        2.9220006923   -1.1782409844   -4.2297560076
H        1.9388492474    1.4891167094   -1.7317584225
H        3.5757894583    1.8480396676   -1.2093960996
H        3.7384583890   -0.3545568695   -0.0821907077
H        2.0923099097   -0.7485714901   -0.5335747979
H        2.5538729908    1.8631382566    0.9723095811
H        2.5744605678    0.3357182948    1.8848298900
H        1.1407631531    0.8285430810    0.9786899447
23   
torsion grid (-15,)
C        4.5705826379    0.9763396775   -5.0479834961
C        3.8500730621    1.4885662363   -3.7945848005
C        3.4858845064    0.4017367040   -2.7644369463
H        4.4154406399   -0.1224009200   -2.4938120011
C        2.5115743026   -0.6321530496   -3.3492547554
C        2.9296818782    1.0546037897   -1.4855626194
C        2.7447035006    0.1086573427   -0.2905799405
C        2.2392167335    0.8341385890    0.9769684730
H        4.8829045680    1.8099418525   -5.6863898150
H        3.9326324014    0.3242452316   -5.6525482788
H        5.4694295667    0.4078124245   -4.7806606895
H        4.4880855068    2.2331715554   -3.3013247967
H        2.9347776088    2.0204129571   -4.0899824958
H        2.2733143602   -1.4187132571   -2.6272798954
H        1.5696487828   -0.1509895581   -3.6426219387
H        2.9254923042   -1.1229715052   -4.2350809920
H        1.9707863313    1.5407269316   -1.7192663714
H        3.6100605410    1.8604458669   -1.1790907787
H        3.7107540866   -0.3695909381   -0.0835443774
H        2.0575784806   -0.7034193333   -0.5481035833
H        2.3515899152    1.9202524873    0.8858395603
H        2.7676595349    0.5113710126    1.8789898941
H        1.1716832796    0.6515353881    1.1421499380
23   
torsion grid (0,)
C        3.8664946300    1.6823802526   -5.2450308404
C        3.1112625950    2.0077749838   -3.9503009903
C        3.2718976925    0.9670356730   -2.8251011402
H        4.3498142016    0.8486389558   -2.6352166628
C        2.7093730377   -0.4031822152   -3.2329295789
C        2.6254213193    1.4903032640   -1.5292772597
C        2.8864935705    0.6455180657   -0.2740156644
C        2.2911674851    1.2748523973    1.0090851756
H        3.7861142825    2.5072879776   -5.9613174440
H        3.4758886255    0.7855893571   -5.7358639426
H        4.9324023740    1.5163864934   -5.0478424817
H        3.4579408135    2.9793542762   -3.5752708222
H        2.0418067545    2.1313154216   -4.1713720918
H        2.8582663768   -1.1521607256   -2.4496538546
H        1.6316473263   -0.3343794507   -3.4294930291
H        3.1899645693   -0.7847442295   -4.1386612173
H        1.5402232916    1.5847099721   -1.6814723352
H        2.9939025906    2.5081438387   -1.3417154702
H        3.9694794336    0.5126870694   -0.1597615441
H        2.4756541363   -0.3593724610   -0.4135111297
H        1.7842322080    2.2210998635    0.7901388992
H        3.0626374703    1.4895062518    1.7553453464
H        1.5548151277    0.6186447642    1.4836778490
23   
torsion grid (15,)
C        3.9315414097    1.9824389479   -5.1734103661
C        3.1908651409    2.2718131117   -3.8618425643
C        3.3436628630    1.1884450799   -2.7765547599
H        4.4210470411    1.0427771084   -2.6036222808
C        2.7504371139   -0.1555892596   -3.2257257850
C        2.7222344880    1.6772361975   -1.4552374066
C        2.9532742887    0.7674157028   -0.2403937215
C        2.4270840323    1.3842234785    1.0755444959
H        3.8553055472    2.8324316525   -5.8602190916
H        3.5261918928    1.1077714878   -5.6914757581
H        4.9969234507    1.7972037455   -4.9911430549
H        3.5552598451    3.2237208213   -3.4545110813
H        2.1218621473    2.4195774503   -4.0698531785
H        2.8995010126   -0.9358789221   -2.4736725451
H        1.6708905916   -0.0614965469   -3.4007999046
H        3.2091277565   -0.5105435429   -4.1533703005
H        1.6405781342    1.8167588575   -1.5954935435
H        3.1283142108    2.6726724773   -1.2273797939
H        4.0233579380    0.5429985252   -0.1511046833
H        2.4586008455   -0.1942244388   -0.4130332049
H        1.7555127301    2.2271096613    0.8776933965
H        3.2456312561    1.7834163749    1.6844615697
H        1.8882228560    0.6571815675    1.6904740741
23   
torsion grid (30,)
C        3.8524356822    1.7019926945   -5.2063416687
C        3.1221432300    2.0179333369   -3.8950890807
C        3.2871843201    0.9588208506   -2.7879765589
H        4.3663834494    0.8183185208   -2.6224979102
C        2.6916140689   -0.3956317285   -3.2011066397
C        2.6780735697    1.4753423546   -1.4713585616
C        2.9107095650    0.5855594180   -0.2425787149
C        2.4224934895    1.2428015574    1.0617751991
H        3.7673876743    2.5362861669   -5.9111293386
H        3.4456011325    0.8147455585   -5.7013508885
H        4.9199727390    1.5242523223   -5.0293174848
H        3.4873341891    2.9794081868   -3.5116062491
H        2.0510001573    2.1584006785   -4.0970802933
H        2.8515577012   -1.1590710199   -2.4341291909
H        1.6097927281   -0.3075919288   -3.3650261289
H        3.1398889226   -0.7695005373   -4.1264155615
H        1.5963674590    1.6185470637   -1.6066509280
H        3.0914705517    2.4726922988   -1.2652437917
H        3.9757896561    0.3341403586   -0.1608243934
H        2.3850424085   -0.3654130632   -0.3841138259
H        1.5750747093    1.9118222212    0.8730448805
H        3.2078173428    1.8671060057    1.5038306395
H        2.1254845766    0.5055342747    1.8139442485
23   
torsion grid (45,)
C        3.8072066847    1.0561198205   -5.3311640841
C        3.0256374926    1.4520738690   -4.0722445058
C        3.1429048009    0.4627274183   -2.8966724357
H        4.2140278347    0.3346114829   -2.6774655085
C        2.5643442126   -0.9154529774   -3.2512490007
C        2.4787367611    1.0571719839   -1.6407310127
C        2.6678071420    0.2493298262   -0.3499839682
C        2.1187917878    0.9795374029    0.8837920656
H        3.7534812946    1.8459543031   -6.0883129303
H        3.4176803200    0.1406931251   -5.7872480893
H        4.8661307482    0.8885309294   -5.1005792066
H        3.3778214958    2.4350765410   -3.7338160460
H        1.9638968978    1.5803400141   -4.3255070248
H        2.6871982145   -1.6291037569   -2.4313172046
H        1.4914118807   -0.8387837329   -3.4700749659
H        3.0540381517   -1.3462703717   -4.1296153328
H        1.4027913061    1.1838396648   -1.8290629578
H        2.8785986054    2.0684661089   -1.4817520728
H        3.7330562161    0.0260589782   -0.2053212435
H        2.1628125223   -0.7187158016   -0.4462943837
H        1.1304078425    1.4076162087    0.6793600555
H        2.7701045069    1.8153782167    1.1658531696
H        2.0358871648    0.3151841474    1.7501342462
23   
torsion grid (60,)
C        3.7854352445    0.7973809510   -5.3764212881
C        3.0052958002    1.2175506943   -4.1244898966
C        3.0938427310    0.2326318665   -2.9426546913
H        4.1605336361    0.0845725922   -2.7144526230
C        2.4906549052   -1.1355437959   -3.2948958473
C        2.4316691481    0.8470942004   -1.6951585276
C        2.6138220347    0.0535284946   -0.3948354423
C        2.0365001190    0.7822319460    0.8245653669
H        3.7547369675    1.5844800400   -6.1376928311
H        3.3777418029   -0.1110704098   -5.8305592474
H        4.8387389900    0.6065643012   -5.1382475093
H        3.3769037438    2.1945447916   -3.7894597617
H        1.9481329164    1.3675458340   -4.3848524638
H        2.5889660151   -1.8461923192   -2.4690722149
H        1.4221915621   -1.0377860834   -3.5267108879
H        2.9812117823   -1.5825224506   -4.1646668785
H        1.3575097465    0.9820834787   -1.8893862539
H        2.8403911961    1.8558922983   -1.5451891246
H        3.6838236020   -0.1365102106   -0.2352536696
H        2.1372369156   -0.9295108683   -0.4822590799
H        0.9613700644    0.9601946865    0.7046483950
H        2.5182430658    1.7564168051    0.9684117428
H        2.1772924829    0.2012079341    1.7425891973
23   
torsion grid (75,)
C        3.8553364138    1.0081619913   -5.3362956770
C        3.0908133856    1.4260376447   -4.0739947068
C        3.1402019904    0.4085751562   -2.9176711794
H        4.2002192933    0.2184799630   -2.6892720237
C        2.4924275436   -0.9284785267   -3.3083543726
C        2.4929554443    1.0123634641   -1.6572283662
C        2.6713503099    0.1951020216   -0.3708476990
C        2.0689865309    0.8874517754    0.8598728491
H        3.8587593071    1.8163432807   -6.0757755393
H        3.4111992190    0.1301264449   -5.8153784256
H        4.8993735898    0.7673863812   -5.1025787410
H        3.4994285673    2.3791139922   -3.7141219181
H        2.0404440633    1.6231856778   -4.3304031374
H        2.5545828849   -1.6609450329   -2.4982075592
H        1.4311952323   -0.7864555565   -3.5501402883
H        2.9771305949   -1.3732964568   -4.1825052767
H        1.4204500351    1.1689739657   -1.8456264113
H        2.9189195056    2.0108942896   -1.4898365717
H        3.7454299014    0.0325988803   -0.2079044941
H        2.2246353892   -0.7993530218   -0.4789328004
H        0.9751936724    0.8178533565    0.8597107569
H        2.3457071497    1.9469003230    0.9007847713
H        2.4162783880    0.4170045241    1.7867532143
23   
torsion grid (90,)
C        3.8426001703    0.8240507257   -5.3566287873
C        3.0862595925    1.2778576229   -4.1018322398
C        3.1062736893    0.2743485596   -2.9324757667
H        4.1604778003    0.0621742106   -2.6965339131
C        2.4285921686   -1.0517587173   -3.3097303617
C        2.4676453524    0.9090464485   -1.6830673470
C        2.6365735859    0.1125543818   -0.3818742159
C        2.0219862294    0.8233759479    0.8382366910
H        3.8688023060    1.6223311472   -6.1063362063
H        3.3768286697   -0.0482050513   -5.8256059109
H        4.8794597308    0.5592074499   -5.1170511774
H        3.5187829003    2.2244801458   -3.7530504012
H        2.0420068497    1.4989956054   -4.3635992468
H        2.4637952914   -1.7731877826   -2.4881269969
H        1.3738346398   -0.8864656789   -3.5646087845
H        2.9104473664   -1.5220858083   -4.1720205844
H        1.3974567482    1.0779365796   -1.8744966196
H        2.9078560574    1.9037768842   -1.5316708453
H        3.7110794289   -0.0391722840   -0.2138818133
H        2.2009593341   -0.8873846253   -0.4784525239
H        0.9742897628    0.5389109766    0.9845456621
H        2.0756633350    1.9131711883    0.7426477181
H        2.5460257202    0.5481947263    1.7604636172
23   
torsion grid (105,)
C        3.7517505392    0.4483384820   -5.3785080353
C        2.9911040428    0.9212426367   -4.1333961922
C        3.0174035563   -0.0589574082   -2.9444783351
H        4.0728772502   -0.2633316077   -2.7072940344
C        2.3428164818   -1.3943541785   -3.2936651784
C        2.3803385478    0.5985269417   -1.7063158603
C        2.5460313239   -0.1761766176   -0.3911424909
C        1.9391196893    0.5631456332    0.8229731649
H        3.7704981299    1.2309499185   -6.1447806697
H        3.2943076988   -0.4378849194   -5.8291428082
H        4.7910280515    0.1983766810   -5.1335191908
H        3.4166365435    1.8776121446   -3.8031150472
H        1.9455333213    1.1297388651   -4.4002013885
H        2.3892726713   -2.1022154634   -2.4609117023
H        1.2849363317   -1.2383125376   -3.5413334390
H        2.8189823085   -1.8763025036   -4.1526846797
H        1.3103916482    0.7660935842   -1.8997004520
H        2.8227098451    1.5948794647   -1.5723446072
H        3.6183618422   -0.3417976624   -0.2263011420
H        2.0984068854   -1.1713836469   -0.4760959324
H        0.9946302277    0.1118869127    1.1440109694
H        1.7508618914    1.6189492808    0.6011604416
H        2.6085507061    0.5286275250    1.6891608778
23   
torsion grid (120,)
C        3.6992658861    0.1988528594   -5.4289947775
C        2.9365481602    0.6893350284   -4.1919719817
C        2.9752859048   -0.2660595090   -2.9833543501
H        4.0332429001   -0.4570295816   -2.7462135210
C        2.3104044454   -1.6138854177   -3.3020341818
C        2.3381665156    0.4124966969   -1.7567466286
C        2.4891661598   -0.3461419533   -0.4304108754
C        1.9130834089    0.4329118103    0.7770761109
H        3.7077993774    0.9655642010   -6.2113534930
H        3.2503137124   -0.7013487666   -5.8600418969
H        4.7417412929   -0.0348567172   -5.1815778019
H        3.3531454572    1.6564502707   -3.8822263738
H        1.8883701712    0.8818750915   -4.4605219412
H        2.3712569424   -2.3059640872   -2.4570641665
H        1.2488716769   -1.4725905359   -3.5429653520
H        2.7836652551   -2.1067299477   -4.1564552741
H        1.2699249135    0.5837497139   -1.9548858223
H        2.7865863974    1.4082076749   -1.6365608044
H        3.5528930144   -0.5592707541   -0.2672672514
H        1.9975235227   -1.3212075754   -0.5051932953
H        1.1121245155   -0.1204978873    1.2773425844
H        1.4920247168    1.3952055058    0.4655762081
H        2.6789121618    0.6463861111    1.5294435854
23   
torsion grid (135,)
C        3.6499605047    0.0710984258   -5.4590601419
C        2.9169484657    0.5705565246   -4.2077468462
C        2.9755998769   -0.3810328619   -2.9969939578
H        4.0369863833   -0.5821800937   -2.7851688933
C        2.2895208843   -1.7232319967   -3.2935192747
C        2.3762763953    0.3084362037   -1.7574852239
C        2.5236732330   -0.4615350015   -0.4374508477
C        2.0287290885    0.3462646144    0.7837381285
H        3.6455011046    0.8345809932   -6.2446047487
H        3.1870323838   -0.8284241136   -5.8765552334
H        4.6963228033   -0.1671856447   -5.2334087518
H        3.3460921355    1.5360652181   -3.9103330628
H        1.8644921753    0.7688371139   -4.4545103892
H        2.3711551843   -2.4150989946   -2.4501225941
H        1.2221289860   -1.5732553546   -3.5011576903
H        2.7316131556   -2.2205262115   -4.1619479256
H        1.3098394821    0.5080119040   -1.9365488184
H        2.8524898719    1.2920731481   -1.6421427541
H        3.5730008868   -0.7506535487   -0.2996363687
H        1.9610114071   -1.3986293731   -0.5030843946
H        1.4104111070   -0.2601099567    1.4532331732
H        1.4021685400    1.1876287652    0.4651923751
H        2.8556639118    0.7642954652    1.3660869497
23   
torsion grid (150,)
C        3.4676002210   -0.5773129021   -5.4939778712
C        2.7283400241   -0.0108107829   -4.2753249497
C        2.8015349536   -0.8835951778   -3.0074372477
H        3.8657852713   -1.0572043337   -2.7860314036
C        2.1327361983   -2.2506640022   -3.2167407797
C        2.1951855649   -0.1259013379   -1.8118228368
C        2.3438058704   -0.8160054086   -0.4488539383
C        1.8647808149    0.0690147242    0.7168405647
H        3.4515130532    0.1350774323   -6.3259916472
H        3.0174494520   -1.5079089393   -5.8533025887
H        4.5174683245   -0.7858349881   -5.2555182135
H        3.1437114436    0.9775205390   -4.0397012695
H        1.6729660838    0.1565169175   -4.5323625015
H        2.2272142237   -2.8872787351   -2.3321548959
H        1.0625447743   -2.1283374726   -3.4281469707
H        2.5781774038   -2.7951075737   -4.0546489128
H        1.1277922239    0.0549855539   -2.0039184429
H        2.6641991099    0.8664769164   -1.7551893111
H        3.3895318224   -1.1107262580   -0.2933509708
H        1.7646089113   -1.7459891875   -0.4521373391
H        1.4759323604   -0.5276223335    1.5485984800
H        1.0405900587    0.7163434818    0.3930982716
H        2.6600533782    0.7205496087    1.0931376619
23   
torsion grid (165,)
C        3.5855721204   -0.1647820415   -5.4253820214
C        2.8530438660    0.3830092104   -4.1941804381
C        2.8959998333   -0.5294162029   -2.9531404082
H        3.9541738602   -0.7344759076   -2.7295444539
C        2.1973995787   -1.8734486631   -3.2088099931
C        2.2977573655    0.2054577209   -1.7391225364
C        2.4257227447   -0.5265274013   -0.3965665451
C        1.9542219271    0.3306336018    0.7865292441
H        3.5939351525    0.5732540505   -6.2348475722
H        3.1136076315   -1.0715417288   -5.8162643727
H        4.6279395999   -0.4083307856   -5.1871963259
H        3.2916827038    1.3528426568   -3.9260697294
H        1.8038989317    0.5848784112   -4.4519216500
H        2.2685647845   -2.5377827725   -2.3426135703
H        1.1324143787   -1.7196226008   -3.4258409843
H        2.6378762747   -2.4034509585   -4.0585194082
H        1.2355847037    0.4138790324   -1.9328933202
H        2.7864722200    1.1858575164   -1.6507117219
H        3.4680955571   -0.8346415628   -0.2408899811
H        1.8350448640   -1.4492968631   -0.4242387544
H        1.7997562031   -0.2737524270    1.6868940555
H        0.9944270992    0.8096056084    0.5573945028
H        2.6699415993    1.1263507757    1.0205064254
23   
torsion grid (180,)
C        3.3643154902   -1.2078727990   -5.5405570870
C        2.6202015088   -0.5666576247   -4.3625738064
C        2.6454446967   -1.3832352809   -3.0561308490
H        3.7001273974   -1.5758449906   -2.8062850455
C        1.9423676110   -2.7394751793   -3.2182493312
C        2.0383185673   -0.5565462795   -1.9071175186
C        2.1681329639   -1.1764965198   -0.5097670868
C        1.6550473534   -0.2461981034    0.5960146931
H        3.3815414491   -0.5342593555   -6.4042461142
H        2.8951364948   -2.1417960606   -5.8652601923
H        4.4039519566   -1.4328212287   -5.2739051227
H        3.0596495631    0.4192774914   -4.1633338251
H        1.5748640125   -0.3813536343   -4.6469138688
H        1.9974522067   -3.3359922526   -2.3029374647
H        0.8815112076   -2.5973532845   -3.4617031616
H        2.3914764503   -3.3352273803   -4.0184656261
H        0.9761259552   -0.3692374472   -2.1226723931
H        2.5221138330    0.4298743829   -1.8945443783
H        3.2216570670   -1.4233718877   -0.3211063584
H        1.6178854228   -2.1231983020   -0.4639848903
H        1.7558105606   -0.7055769787    1.5854440129
H        0.5963417492   -0.0035462409    0.4470568806
H        2.2112981111    0.6984081330    0.6081348168
