
  -OEChem-12122420523D

 41 43  0     0  0  0  0  0  0999 V2000
   -8.4132    3.7460   -6.4574 C   0  0  0  0  0  0  0  0  0  0  0  0
   -7.2317    3.2265   -5.9264 C   0  0  0  0  0  0  0  0  0  0  0  0
   -2.1640   -0.5937   -1.4702 C   0  0  0  0  0  0  0  0  0  0  0  0
   -2.7536   -1.8547   -1.5164 C   0  0  0  0  0  0  0  0  0  0  0  0
   -3.0708    0.8078   -4.8058 C   0  0  0  0  0  0  0  0  0  0  0  0
   -3.5871   -1.4087   -3.7563 C   0  0  0  0  0  0  0  0  0  0  0  0
   -5.9993    4.2874   -7.7178 C   0  0  0  0  0  0  0  0  0  0  0  0
   -2.9951   -0.1301   -3.7185 C   0  0  0  0  0  0  0  0  0  0  0  0
   -2.4994    2.0418   -4.7294 C   0  0  0  0  0  0  0  0  0  0  0  0
   -8.4197    4.5357   -7.6129 C   0  0  0  0  0  0  0  0  0  0  0  0
   -7.1856    4.8064   -8.2451 C   0  0  0  0  0  0  0  0  0  0  0  0
   -6.0118    3.4961   -6.5600 C   0  0  0  0  0  0  0  0  0  0  0  0
   -2.2887    0.2613   -2.5673 C   0  0  0  0  0  0  0  0  0  0  0  0
   -3.4633   -2.2510   -2.6614 C   0  0  0  0  0  0  0  0  0  0  0  0
   -1.7867    2.4423   -3.5013 C   0  0  0  0  0  0  0  0  0  0  0  0
   -2.5421    3.0020   -5.8699 C   0  0  0  0  0  0  0  0  0  0  0  0
   -9.7156    5.0827   -8.1646 C   0  0  0  0  0  0  0  0  0  0  0  0
   -7.1373    5.6574   -9.4930 C   0  0  0  0  0  0  0  0  0  0  0  0
   -1.2382    3.5398   -6.3999 C   0  0  0  0  0  0  0  0  0  0  0  0
   -3.6295    3.3674   -6.4657 N   0  0  0  0  0  0  0  0  0  0  0  0
   -4.8381    2.9241   -6.0382 N   0  0  0  0  0  0  0  0  0  0  0  0
   -1.2745    3.5207   -3.2971 O   0  0  0  0  0  0  0  0  0  0  0  0
   -1.7027    1.4916   -2.4839 O   0  0  0  0  0  0  0  0  0  0  0  0
   -4.2761   -3.9842   -2.7067 Br  0  0  0  0  0  0  0  0  0  0  0  0
   -9.3537    3.5309   -5.9547 H   0  0  0  0  0  0  0  0  0  0  0  0
   -7.2597    2.6167   -5.0251 H   0  0  0  0  0  0  0  0  0  0  0  0
   -1.6113   -0.2625   -0.5966 H   0  0  0  0  0  0  0  0  0  0  0  0
   -2.6660   -2.5279   -0.6702 H   0  0  0  0  0  0  0  0  0  0  0  0
   -3.5953    0.5152   -5.7129 H   0  0  0  0  0  0  0  0  0  0  0  0
   -4.1355   -1.7215   -4.6396 H   0  0  0  0  0  0  0  0  0  0  0  0
   -5.0492    4.4945   -8.1976 H   0  0  0  0  0  0  0  0  0  0  0  0
   -9.7116    6.1788   -8.2017 H   0  0  0  0  0  0  0  0  0  0  0  0
   -9.9024    4.7323   -9.1870 H   0  0  0  0  0  0  0  0  0  0  0  0
  -10.5651    4.7751   -7.5485 H   0  0  0  0  0  0  0  0  0  0  0  0
   -7.7345    5.2177  -10.3005 H   0  0  0  0  0  0  0  0  0  0  0  0
   -7.5423    6.6596   -9.3095 H   0  0  0  0  0  0  0  0  0  0  0  0
   -6.1129    5.7709   -9.8562 H   0  0  0  0  0  0  0  0  0  0  0  0
   -0.5603    2.7217   -6.6732 H   0  0  0  0  0  0  0  0  0  0  0  0
   -1.4333    4.1502   -7.2838 H   0  0  0  0  0  0  0  0  0  0  0  0
   -0.7322    4.1473   -5.6445 H   0  0  0  0  0  0  0  0  0  0  0  0
   -4.9086    2.5445   -5.0955 H   0  0  0  0  0  0  0  0  0  0  0  0
  1  2  1  0  0  0  0
  1 10  2  0  0  0  0
  1 25  1  0  0  0  0
  2 12  2  0  0  0  0
  2 26  1  0  0  0  0
  3  4  2  0  0  0  0
  3 13  1  0  0  0  0
  3 27  1  0  0  0  0
  4 14  1  0  0  0  0
  4 28  1  0  0  0  0
  5  8  1  0  0  0  0
  5  9  2  0  0  0  0
  5 29  1  0  0  0  0
  6  8  1  0  0  0  0
  6 14  2  0  0  0  0
  6 30  1  0  0  0  0
  7 11  2  0  0  0  0
  7 12  1  0  0  0  0
  7 31  1  0  0  0  0
  8 13  2  0  0  0  0
  9 15  1  0  0  0  0
  9 16  1  0  0  0  0
 10 11  1  0  0  0  0
 10 17  1  0  0  0  0
 11 18  1  0  0  0  0
 12 21  1  0  0  0  0
 13 23  1  0  0  0  0
 14 24  1  0  0  0  0
 15 22  2  0  0  0  0
 15 23  1  0  0  0  0
 16 19  1  0  0  0  0
 16 20  2  0  0  0  0
 17 32  1  0  0  0  0
 17 33  1  0  0  0  0
 17 34  1  0  0  0  0
 18 35  1  0  0  0  0
 18 36  1  0  0  0  0
 18 37  1  0  0  0  0
 19 38  1  0  0  0  0
 19 39  1  0  0  0  0
 19 40  1  0  0  0  0
 20 21  1  0  0  0  0
 21 41  1  0  0  0  0
M  END
$$$$
