41
0 1 BrC19H17N2O2
C                    -5.523910274284     8.665821686744    -5.172229360819
C                    -4.529015725983     7.686358406291    -5.191740378582
C                    -1.584440337498     0.287011732914    -1.435092272613
C                    -1.329468421987     0.557506601516    -0.092923798658
C                    -1.620146987838     3.708296268753    -2.921776259331
C                    -1.257165733169     2.941948007759    -0.563126077194
C                    -5.607224929185     6.639250429456    -3.295945473840
C                    -1.515943380052     2.678366289069    -1.923287015530
C                    -1.876637308563     3.416605466274    -4.226842071131
C                    -6.564718608097     8.661586009472    -4.235729607676
C                    -6.600842583461     7.621687781086    -3.281094850979
C                    -4.569805816654     6.659675981857    -4.241713125524
C                    -1.676584361785     1.345366921561    -2.341622725318
C                    -1.168069843700     1.886111692051     0.331918615904
C                    -2.065169681165     2.013221629710    -4.640004010039
C                    -1.943117576951     4.476747479982    -5.274359938049
C                    -7.621590819945     9.741349035718    -4.250533361311
C                    -7.703631126163     7.562545242654    -2.249894274478
C                    -1.015183070264     4.368421661102    -6.456225209377
N                    -2.718942608022     5.507781111656    -5.208806682299
N                    -3.579467891603     5.663190171225    -4.170797627138
O                    -2.333173686177     1.632902698666    -5.758245961363
O                    -1.928836401686     1.041618668167    -3.648607201390
Br                   -0.819093004615     2.242051169702     2.180499917152
H                    -5.486870721803     9.459784473091    -5.915304138208
H                    -3.734554121323     7.705550880539    -5.928307466928
H                    -1.713466589882    -0.730783514815    -1.789534173467
H                    -1.255950281909    -0.255288437568     0.621895365772
H                    -1.482611412445     4.744764725009    -2.620935099154
H                    -1.130309620651     3.966950310423    -0.228497153203
H                    -5.640275522686     5.839097751441    -2.557184686659
H                    -8.625742709701     9.326177863859    -4.400184650030
H                    -7.647147920178    10.299210286509    -3.306426019001
H                    -7.436949058740    10.459087533233    -5.054404890384
H                    -7.716787053715     8.463704895928    -1.625644906219
H                    -8.690154673086     7.490915651373    -2.722723420439
H                    -7.586197685935     6.699453169137    -1.589137261503
H                    -1.240542207899     3.475626606162    -7.046121393265
H                    -1.126439218532     5.254374205995    -7.084422239628
H                     0.028741461140     4.292266170599    -6.127593424256
H                    -3.810493755150     4.844921100819    -3.609688762887
