18   
torsion grid (-165,)
C        0.9866015711    1.2491373122   -0.3151388964
C       -0.3514969655    1.2750024977   -0.3576993162
C        1.7881858492    0.0826338386    0.2051901131
C        0.9312842917   -1.1818946501    0.3488132882
C       -0.4075974042   -0.8454523514    1.0119160073
C       -1.2114324609    0.1521035337    0.1639027140
N       -3.6894026646   -1.9694481512   -0.6039908837
N       -1.8474470019   -0.5149204120   -1.0263659465
N       -2.7991503672   -1.2594584756   -0.7486573497
H        1.5419891117    2.1138950714   -0.6761370536
H       -0.8727421984    2.1309642800   -0.7807938564
H        2.6356747990   -0.1038952206   -0.4654266175
H        2.2305017436    0.3554341364    1.1749246124
H        0.7400639135   -1.6071794540   -0.6430002947
H        1.4660973240   -1.9407970629    0.9294380246
H       -1.0027199508   -1.7489839062    1.1857200510
H       -0.2305887228   -0.3879858824    1.9939276841
H       -2.0184284301    0.5789807009    0.7748904838
18   
torsion grid (-150,)
C        0.9648451824    1.2444715428   -0.3237127839
C       -0.3735954284    1.2271571580   -0.3665330087
C        1.8022906299    0.1107581593    0.2124683543
C        0.9862960648   -1.1789794187    0.3711066097
C       -0.3632796399   -0.8782837291    1.0293871179
C       -1.1966149992    0.0824980458    0.1676118762
N       -3.9045461584   -1.7046496588   -0.6825382707
N       -1.7981412732   -0.6365164519   -1.0108508451
N       -2.8906508601   -1.1756298553   -0.7827519870
H        1.4929163583    2.1211319255   -0.6968750424
H       -0.9219674638    2.0600218312   -0.8013693062
H        2.6563219105   -0.0569101325   -0.4548714253
H        2.2342446486    0.4099895012    1.1790738924
H        0.8088755975   -1.6220438323   -0.6154430755
H        1.5450978687   -1.9132355533    0.9608378623
H       -0.9318528486   -1.7971691734    1.2087388320
H       -0.2020803663   -0.4038802733    2.0062567101
H       -2.0187667854    0.4894057192    0.7709772540
18   
torsion grid (-135,)
C        0.9346751234    1.2329091208   -0.3388962333
C       -0.4032121318    1.1756025116   -0.3673740216
C        1.8096366292    0.1338420296    0.2090931510
C        1.0338547793   -1.1768435289    0.3951670341
C       -0.3191772161   -0.9070903913    1.0598026072
C       -1.1878344957    0.0148554796    0.1913199882
N       -4.0507657239   -1.4266058589   -0.8224664823
N       -1.7676107248   -0.7565512563   -0.9660632739
N       -2.9553145398   -1.0821724931   -0.8357407592
H        1.4331105437    2.1176614323   -0.7332049858
H       -0.9798091663    1.9846856216   -0.8108928667
H        2.6635354902   -0.0192327763   -0.4619261713
H        2.2393102041    0.4620886714    1.1672778542
H        0.8619509551   -1.6412069018   -0.5825265674
H        1.6189820967   -1.8845039631    0.9918703657
H       -0.8593556500   -1.8394895085    1.2533433058
H       -0.1646290146   -0.4137847808    2.0284167986
H       -2.0179547214    0.4039723966    0.7943130205
18   
torsion grid (-120,)
C        0.8955416994    1.2176093879   -0.3543676359
C       -0.4412303108    1.1300329212   -0.3506485668
C        1.8076417148    0.1466758761    0.1887628596
C        1.0664490916   -1.1775347933    0.4167015684
C       -0.2794453397   -0.9260947878    1.1031792274
C       -1.1862981254   -0.0455414731    0.2335099432
N       -4.1061885679   -1.1622137099   -1.0167030118
N       -1.7438317745   -0.8701761256   -0.8993045669
N       -2.9752838996   -0.9913617267   -0.9092189408
H        1.3646085819    2.1084838164   -0.7703811819
H       -1.0450967826    1.9219372200   -0.7894238154
H        2.6482235446    0.0010402035   -0.5004757694
H        2.2532005035    0.5010985346    1.1302898202
H        0.8864044392   -1.6665853690   -0.5472840788
H        1.6797586068   -1.8587904033    1.0158539257
H       -0.7932125559   -1.8662695692    1.3263833296
H       -0.1174763878   -0.4064711747    2.0565674889
H       -2.0243720002    0.3222969776    0.8380721687
18   
torsion grid (-105,)
C        0.8512965292    1.1984288205   -0.3733962511
C       -0.4829791759    1.0845230424   -0.3331990767
C        1.7984063777    0.1558816363    0.1644952238
C        1.0905448826   -1.1782223959    0.4360882171
C       -0.2448370506   -0.9419526166    1.1484056992
C       -1.1896807000   -0.0987799037    0.2843815929
N       -4.0881907915   -0.9094165404   -1.2243094442
N       -1.7415549566   -0.9733023075   -0.8139811304
N       -2.9649204295   -0.9011308148   -0.9830745340
H        1.2912920380    2.0913087755   -0.8160647362
H       -1.1123990026    1.8589608778   -0.7679356626
H        2.6239102120    0.0141824730   -0.5435417084
H        2.2606989247    0.5370220462    1.0873593383
H        0.8996295337   -1.6914004819   -0.5130639167
H        1.7316464392   -1.8337823564    1.0348595458
H       -0.7333006877   -1.8883225678    1.3992000966
H       -0.0727309804   -0.4005946300    2.0875164023
H       -2.0274387250    0.2547327479    0.8977731082
18   
torsion grid (-90,)
C        0.8028190689    1.1777843725   -0.3933898563
C       -0.5277297149    1.0424380962   -0.3134564641
C        1.7821184020    0.1610939183    0.1361647347
C        1.1054202944   -1.1798399995    0.4504036767
C       -0.2155724206   -0.9550821609    1.1929856370
C       -1.1965937017   -0.1431447977    0.3418436816
N       -3.9992418485   -0.6807293953   -1.4370055040
N       -1.7601351164   -1.0607773309   -0.7143434485
N       -2.9251477891   -0.8175272848   -1.0532577222
H        1.2149284693    2.0702856084   -0.8629026827
H       -1.1810913555    1.8009859286   -0.7415078869
H        2.5903592496    0.0209004105   -0.5918272985
H        2.2626849983    0.5670214288    1.0388805854
H        0.8997134173   -1.7137802009   -0.4840635264
H        1.7734230177   -1.8129411695    1.0438816729
H       -0.6809148197   -1.9057952402    1.4694400071
H       -0.0296043532   -0.3965741886    2.1189684977
H       -2.0260433606    0.2038178093    0.9706986607
18   
torsion grid (-75,)
C        0.7516093377    1.1589116401   -0.4100715762
C       -0.5741143291    1.0104219227   -0.2853301083
C        1.7588686569    0.1602642651    0.1008399208
C        1.1080422037   -1.1828949522    0.4573678642
C       -0.1921111984   -0.9624310717    1.2372381292
C       -1.2074975928   -0.1744386635    0.4060609388
N       -3.8394939605   -0.5006316227   -1.6585546849
N       -1.7959111567   -1.1269847646   -0.6038601096
N       -2.8556800467   -0.7508790433   -1.1215277552
H        1.1385503647    2.0503984284   -0.9024366555
H       -1.2479564363    1.7591992333   -0.6989069169
H        2.5438160782    0.0177846564   -0.6518096705
H        2.2649635335    0.5853670973    0.9804649758
H        0.8796458965   -1.7341365583   -0.4616369688
H        1.8018156339   -1.7987567775    1.0392792139
H       -0.6377806648   -1.9146866007    1.5395161245
H        0.0149688527   -0.3899065517    2.1497630769
H       -2.0223427351    0.1715351674    1.0551169658
18   
torsion grid (-60,)
C        0.7021538753    1.1436869465   -0.4238027879
C       -0.6178618472    0.9911062592   -0.2519712322
C        1.7307194687    0.1547540741    0.0627920385
C        1.0986172757   -1.1873145055    0.4552097783
C       -0.1746516549   -0.9646144589    1.2775174156
C       -1.2205663834   -0.1888872913    0.4737534579
N       -3.6247782016   -0.3858574066   -1.8729623607
N       -1.8503040235   -1.1658249453   -0.4862366155
N       -2.7661429672   -0.7064459584   -1.1814961844
H        1.0680458788    2.0322472505   -0.9371746459
H       -1.3072812074    1.7355890982   -0.6471148715
H        2.4910191158    0.0085387869   -0.7140537139
H        2.2633148973    0.5917853580    0.9206194085
H        0.8399904738   -1.7482457210   -0.4498785146
H        1.8149677991   -1.7950011130    1.0179645596
H       -0.6060583213   -1.9161263058    1.6020582314
H        0.0605559091   -0.3843275032    2.1780776888
H       -2.0123476497    0.1630732402    1.1482111120
18   
torsion grid (-45,)
C        1.1283363811    1.2023801292   -0.2771397003
C       -0.1853053609    1.1184224547   -0.5277039601
C        1.9132838280    0.1433919972    0.4539766138
C        1.1307160970   -1.1700997048    0.5870399964
C       -0.3241740062   -0.8967227680    0.9810559026
C       -1.0304573257   -0.0506427296   -0.0807656643
N       -2.1096516793   -0.0371389899   -3.2798199232
N       -1.3781035016   -0.9784228955   -1.2166455305
N       -1.7534032353   -0.4330137445   -2.2629810943
H        1.6721255234    2.0876775748   -0.6050754922
H       -0.6857053388    1.9166226798   -1.0733816536
H        2.8643464144   -0.0274499217   -0.0650408840
H        2.1838202502    0.5300954940    1.4478207273
H        1.1414037531   -1.7015663749   -0.3711970410
H        1.6096481234   -1.8240541940    1.3232305736
H       -0.8767715880   -1.8306660396    1.1199907915
H       -0.3578014179   -0.3483535975    1.9303266123
H       -1.9800816627    0.3230326109    0.3248255153
18   
torsion grid (-30,)
C        1.0904639172    1.2041091650   -0.2919331864
C       -0.2318246443    1.1296026509   -0.4959580477
C        1.8944338275    0.1360373067    0.4042434477
C        1.1087785372   -1.1732439899    0.5583976509
C       -0.3290270990   -0.8932311102    1.0063681828
C       -1.0669454168   -0.0366993767   -0.0265526148
N       -1.7888401139   -0.0763221591   -3.3370401485
N       -1.4809737257   -0.9584008892   -1.1456987481
N       -1.6282250161   -0.4423366921   -2.2610578439
H        1.6272547925    2.0890938564   -0.6319469753
H       -0.7463917581    1.9354437266   -1.0164251681
H        2.8257751383   -0.0371595288   -0.1486353786
H        2.2016725039    0.5157766350    1.3900520574
H        1.0809614697   -1.6995332197   -0.4025673859
H        1.6103579768   -1.8347848818    1.2723319755
H       -0.8820082412   -1.8248766119    1.1584530729
H       -0.3258215234   -0.3512862329    1.9600496997
H       -1.9974153703    0.3413033321    0.4164351997
18   
torsion grid (-15,)
C        1.0554400163    1.2122613154   -0.2993784564
C       -0.2740345487    1.1531675229   -0.4564490384
C        1.8738766244    0.1272051061    0.3521558119
C        1.0813349918   -1.1761278991    0.5218382345
C       -0.3371488982   -0.8873668287    1.0224777099
C       -1.1020761119   -0.0130766948    0.0224420858
N       -1.4673155968   -0.1707527562   -3.3519518587
N       -1.5757150322   -0.9128555316   -1.0913406760
N       -1.4973101250   -0.4704941602   -2.2443368194
H        1.5878669693    2.0977454534   -0.6447522136
H       -0.7994389361    1.9706443854   -0.9470996036
H        2.7814475710   -0.0485989384   -0.2381469073
H        2.2227204858    0.4920700912    1.3296533478
H        1.0156528391   -1.6938146627   -0.4422130582
H        1.6016978508   -1.8493410500    1.2108859924
H       -0.8936061360   -1.8153098628    1.1841499308
H       -0.2960785161   -0.3550430373    1.9809171317
H       -2.0150881934    0.3631795280    0.4996641759
18   
torsion grid (0,)
C        1.0264643718    1.2262289757   -0.3006999688
C       -0.3078545741    1.1830915848   -0.4170356816
C        1.8534149413    0.1222684523    0.3068431719
C        1.0534138591   -1.1763037507    0.4780109823
C       -0.3466116091   -0.8831833488    1.0258280892
C       -1.1330571320    0.0167205683    0.0636849582
N       -1.1716995603   -0.3095523472   -3.3211527323
N       -1.6649103746   -0.8461965937   -1.0536642215
N       -1.3764433640   -0.5155037757   -2.2106358163
H        1.5571500363    2.1117256899   -0.6485525655
H       -0.8399984969    2.0117366648   -0.8810172562
H        2.7409994249   -0.0516289025   -0.3135619618
H        2.2348756038    0.4661380391    1.2797158288
H        0.9562868851   -1.6781610586   -0.4920358988
H        1.5874081063   -1.8661811242    1.1395834117
H       -0.9073619356   -1.8084432261    1.1879071735
H       -0.2713255159   -0.3684996418    1.9920803254
H       -2.0285254119    0.3892357748    0.5732179511
18   
torsion grid (15,)
C        1.0027294131    1.2450124407   -0.2965765162
C       -0.3348090786    1.2196530849   -0.3759067980
C        1.8338138785    0.1197761818    0.2649829477
C        1.0258116174   -1.1748256239    0.4296146819
C       -0.3578686534   -0.8805068477    1.0175736516
C       -1.1597063353    0.0503108281    0.0962884024
N       -0.9061393743   -0.4844349489   -3.2482481120
N       -1.7415002491   -0.7610171621   -1.0346335529
N       -1.2663679660   -0.5737813072   -2.1622065710
H        1.5339679180    2.1310523418   -0.6420506414
H       -0.8708180238    2.0613407872   -0.8110672548
H        2.7028389376   -0.0491817319   -0.3823325608
H        2.2439868679    0.4382110362    1.2347626457
H        0.9045223921   -1.6582394778   -0.5471828860
H        1.5689469575   -1.8823964228    1.0645592797
H       -0.9241835514   -1.8033757976    1.1739465207
H       -0.2524588935   -0.3884672453    1.9929983877
H       -2.0405406027    0.4143618451    0.6339941648
18   
torsion grid (30,)
C        0.9894080851    1.2677749979   -0.2875522991
C       -0.3497213142    1.2586889477   -0.3406844581
C        1.8196716074    0.1231715818    0.2356951898
C        1.0060612881   -1.1704210435    0.3814991433
C       -0.3688104536   -0.8819716735    0.9938163477
C       -1.1778276551    0.0854919179    0.1163939013
N       -0.7145991331   -0.6948020964   -3.1485281197
N       -1.8103462597   -0.6574339792   -1.0329310823
N       -1.1923681681   -0.6445858958   -2.1064514142
H        1.5238308003    2.1551086383   -0.6247533097
H       -0.8865511391    2.1134343423   -0.7482146895
H        2.6787020454   -0.0368090593   -0.4268618215
H        2.2447338124    0.4156409872    1.2072419691
H        0.8758760923   -1.6341755117   -0.6032859423
H        1.5519564252   -1.8938237809    0.9960422404
H       -0.9409983830   -1.8041170256    1.1327012310
H       -0.2443649900   -0.4201836747    1.9818760446
H       -2.0424274061    0.4425043079    0.6825128583
18   
torsion grid (45,)
C        0.9934026987    1.2952859016   -0.2693602591
C       -0.3459579653    1.2952179471   -0.3197014558
C        1.8182830538    0.1387169351    0.2365857217
C        1.0056432595   -1.1595035213    0.3388192637
C       -0.3758405970   -0.8926385724    0.9485538180
C       -1.1821818525    0.1212104698    0.1212579579
N       -0.6603812892   -0.9426055532   -3.0499472459
N       -1.8778533891   -0.5330261497   -1.0426366160
N       -1.1897335031   -0.7252550882   -2.0555262974
H        1.5328886326    2.1836753585   -0.5955582836
H       -0.8806898668    2.1572150185   -0.7139751129
H        2.6860253793   -0.0046866487   -0.4181906369
H        2.2302286209    0.4060670847    1.2209534932
H        0.8922225155   -1.5989585536   -0.6581324499
H        1.5463978082   -1.8962412349    0.9422593902
H       -0.9524464761   -1.8179705561    1.0416185150
H       -0.2554045311   -0.4809872908    1.9589920282
H       -2.0223772442    0.4779764342    0.7225039587
18   
torsion grid (60,)
C        1.0120642475    1.3293306123   -0.2359662693
C       -0.3261706895    1.3299559578   -0.3095939406
C        1.8276914657    0.1643448714    0.2658183215
C        1.0207419537   -1.1405308608    0.2966877733
C       -0.3766442770   -0.9058765703    0.8855231777
C       -1.1746891566    0.1556356466    0.1095641957
N       -0.7376681731   -1.2332153395   -2.9527327093
N       -1.9292363173   -0.4059888257   -1.0625769699
N       -1.2483554889   -0.8243594102   -2.0101298690
H        1.5568145695    2.2217022114   -0.5419661612
H       -0.8558787606    2.1963757935   -0.7005102556
H        2.7190100207    0.0455453198   -0.3615383155
H        2.2024050450    0.4022285941    1.2723741061
H        0.9394150319   -1.5408735040   -0.7188051066
H        1.5495411972   -1.8966211442    0.8868626784
H       -0.9539026511   -1.8351769099    0.9195535658
H       -0.2751399927   -0.5529376681    1.9197952053
H       -1.9877727702    0.5139532065    0.7461563623
18   
torsion grid (75,)
C        1.0375194679    1.3666729984   -0.1937553978
C       -0.2979870564    1.3639655136   -0.3046216751
C        1.8401142929    0.1930293892    0.3085848583
C        1.0407782519   -1.1144520814    0.2491106885
C       -0.3727211735   -0.9155188725    0.8138268079
C       -1.1604716497    0.1885803709    0.0862983744
N       -0.8834423010   -1.5415476837   -2.8222321815
N       -1.9506540217   -0.2935707856   -1.0967499261
N       -1.3333574745   -0.9367181371   -1.9567163377
H        1.5873376901    2.2649232705   -0.4720670325
H       -0.8206441794    2.2344893631   -0.6955692130
H        2.7625339682    0.1018157276   -0.2768387202
H        2.1609115282    0.3949852641    1.3413097646
H        0.9903224194   -1.4575924688   -0.7888437635
H        1.5563666412   -1.8992810842    0.8129189100
H       -0.9464979052   -1.8476012851    0.7852098223
H       -0.2950396140   -0.6237319951    1.8686914086
H       -1.9528436302    0.5450444766    0.7499594021
18   
torsion grid (90,)
C        1.0583697243    1.4028174514   -0.1427818727
C       -0.2736898963    1.4007353035   -0.2875077354
C        1.8499008543    0.2127741087    0.3377751956
C        1.0532520683   -1.0901078311    0.2020025207
C       -0.3701751847   -0.9156155987    0.7494708829
C       -1.1462790302    0.2163610149    0.0543925369
N       -1.0267337467   -1.8227324637   -2.6607623343
N       -1.9236448075   -0.2045552553   -1.1615805601
N       -1.3989154739   -1.0453486706   -1.9017079939
H        1.6126910212    2.3099085933   -0.3803502159
H       -0.7888725517    2.2815602593   -0.6647598107
H        2.7887683326    0.1449680133   -0.2241741685
H        2.1402838391    0.3728737516    1.3867005397
H        1.0214175831   -1.3815638460   -0.8526578259
H        1.5576003762   -1.9020684676    0.7366988391
H       -0.9397499323   -1.8483864765    0.6775548666
H       -0.3112144592   -0.6662704012    1.8160828099
H       -1.9407834624    0.5581424951    0.7241201153
18   
torsion grid (105,)
C        0.9323790141    1.1329410056   -0.4494825094
C       -0.3892619425    1.3189235287   -0.3341918339
C        1.6601653196   -0.0670628264    0.1018967607
C        0.6989678011   -1.2222517782    0.4057992747
C       -0.5289171824   -0.7145980800    1.1735145530
C       -1.3015591625    0.3696335883    0.4066215974
N       -2.2114146138   -2.3609040813   -1.4010783481
N       -2.3455714918   -0.1412559388   -0.5504872581
N       -2.2186650350   -1.2995997982   -0.9601741518
H        1.5263301817    1.8826470452   -0.9706947738
H       -0.8647318252    2.1891358513   -0.7815133875
H        2.4287795165   -0.3886692640   -0.6107207913
H        2.2018124512    0.2260486829    1.0134117617
H        0.3894032753   -1.6890452816   -0.5353261851
H        1.2066169493   -1.9979593096    0.9888038821
H       -1.2018814886   -1.5388209831    1.4338133289
H       -0.1986829886   -0.2718664263    2.1210850671
H       -1.8943763407    0.9508398699    1.1202357772
18   
torsion grid (120,)
C        0.9563145200    1.1670790335   -0.4078986411
C       -0.3676511836    1.3479890539   -0.3171892941
C        1.6730330488   -0.0555050715    0.1073866562
C        0.7037160846   -1.2140427919    0.3717030962
C       -0.5303640497   -0.7161172693    1.1343872786
C       -1.2946986107    0.3657122554    0.3599875069
N       -2.3621081955   -2.4692762088   -1.1833494493
N       -2.2615099857   -0.1451276372   -0.6780019422
N       -2.2683787736   -1.3593737116   -0.8981469635
H        1.5618016546    1.9379285197   -0.8829527098
H       -0.8328194337    2.2350307170   -0.7416771433
H        2.4423160595   -0.3585392488   -0.6127685878
H        2.2136560473    0.2046633831    1.0294544851
H        0.3995149855   -1.6566331372   -0.5834362291
H        1.2009714138   -2.0063612231    0.9409176982
H       -1.1996719863   -1.5448377923    1.3894066709
H       -0.2111970197   -0.2720731324    2.0850840516
H       -1.9335321383    0.9176200662    1.0586062805
18   
torsion grid (135,)
C        0.9752229066    1.1952256911   -0.3705910662
C       -0.3515119432    1.3643877619   -0.3056781453
C        1.6899513487   -0.0404064388    0.1157943149
C        0.7211676638   -1.2065723354    0.3492250251
C       -0.5236307730   -0.7220029915    1.1014736024
C       -1.2848956117    0.3494790722    0.3117065465
N       -2.5620536815   -2.5144124163   -0.9967388656
N       -2.1620479898   -0.1759234106   -0.7971534287
N       -2.3375195606   -1.3965349789   -0.8486212305
H        1.5862980318    1.9869327089   -0.8021903362
H       -0.8122381637    2.2629441209   -0.7103689062
H        2.4616203223   -0.3241475133   -0.6098015158
H        2.2282342220    0.1972929029    1.0452781448
H        0.4260757340   -1.6335486080   -0.6163040474
H        1.2141800422   -2.0067190297    0.9108895065
H       -1.1857346805   -1.5577446320    1.3517585622
H       -0.2209748939   -0.2712683173    2.0544565980
H       -1.9727505363    0.8711542184    0.9883780054
18   
torsion grid (150,)
C        0.9904876674    1.2168292492   -0.3434895069
C       -0.3400469801    1.3618374562   -0.3095120602
C        1.7150135483   -0.0153254478    0.1369464612
C        0.7595117168   -1.1987658366    0.3354711248
C       -0.5062510341   -0.7408610202    1.0678611637
C       -1.2699148176    0.3185525151    0.2629659664
N       -2.8307582639   -2.4843381225   -0.8356962312
N       -2.0689602594   -0.2286514796   -0.8920843605
N       -2.4426630876   -1.4029395019   -0.8041995517
H        1.5978893811    2.0278813522   -0.7431449420
H       -0.8052968449    2.2603371659   -0.7091956231
H        2.5047608566   -0.2758769500   -0.5778305027
H        2.2318703255    0.2166812956    1.0800304116
H        0.4854229589   -1.6139853754   -0.6414706657
H        1.2537773621   -1.9997470671    0.8947752000
H       -1.1571613642   -1.5898959367    1.3022918497
H       -0.2311971023   -0.2872464058    2.0279714503
H       -1.9970916252    0.8136499140    0.9198225802
18   
torsion grid (165,)
C        0.9990139485    1.2345410846   -0.3242646858
C       -0.3353174146    1.3433756776   -0.3256424229
C        1.7433850295    0.0173219328    0.1636282013
C        0.8133838030   -1.1910783890    0.3308238775
C       -0.4807530266   -0.7723023688    1.0357181420
C       -1.2510137919    0.2739105029    0.2177915677
N       -3.1308304062   -2.3774296458   -0.6996421941
N       -1.9876491777   -0.3033903331   -0.9622388576
N       -2.5675178628   -1.3784989116   -0.7649153378
H        1.5947869328    2.0653951834   -0.7000769855
H       -0.8135765058    2.2329748176   -0.7299056132
H        2.5541627548   -0.2176033881   -0.5364717661
H        2.2344246901    0.2546585960    1.1190576346
H        0.5698228402   -1.6022541901   -0.6557545615
H        1.3150817655   -1.9842742455    0.8946778302
H       -1.1165671009   -1.6402236720    1.2421030328
H       -0.2433872492   -0.3231998718    2.0081617817
H       -2.0080567912    0.7462130253    0.8584631206
18   
torsion grid (180,)
C        0.9985139487    1.2456497857   -0.3146051015
C       -0.3382655999    1.3131934147   -0.3451749628
C        1.7687672400    0.0516612185    0.1900716818
C        0.8731358585   -1.1853451363    0.3343231481
C       -0.4475413769   -0.8097935520    1.0131275111
C       -1.2305612784    0.2172459361    0.1809099374
N       -3.4270192490   -2.1997997777   -0.6085932538
N       -1.9146125448   -0.4008543817   -1.0089466704
N       -2.6913809528   -1.3283854189   -0.7412438731
H        1.5766084503    2.0948027376   -0.6769473606
H       -0.8352799863    2.1876942938   -0.7596071014
H        2.6023425200   -0.1571065239   -0.4913523661
H        2.2301519933    0.3033033406    1.1565768263
H        0.6604699055   -1.5982108650   -0.6585074295
H        1.3879080716   -1.9650763751    0.9052664376
H       -1.0648699062   -1.6966145947    1.1954369073
H       -0.2453761210   -0.3615866110    1.9942375790
H       -2.0135985352    0.6673583138    0.8065408547
