42
0 1 C19ClH18NO3
C                    -5.936234192287    -4.319674613178     5.438567150840
C                    -4.599539125223    -3.976272984097     5.224345256701
C                    -6.836410650178    -4.312793589614     4.361917427586
C                    -4.129649463416    -3.629960679269     3.949029083880
C                    -0.884166582390    -4.970232243429    -0.006409674840
C                    -0.640795136230    -2.587717026358    -0.250012852992
C                    -6.381758836656    -3.975155282451     3.094204928020
C                    -1.270674563711    -3.679457973475     0.355636841205
C                    -5.028945597975    -3.648704019652     2.877420884829
C                     0.106917720657    -5.187957026114    -0.967017762723
C                     0.723620566800    -4.093075084161    -1.609574926770
C                     0.337554125652    -2.800468516949    -1.216760539543
C                    -3.708341026561    -3.142730816912     0.747416004347
C                    -7.139990360630    -3.903730530377     1.788057377458
C                     2.108434289141    -6.590483733183    -3.024038755148
C                    -6.163908575470    -3.151149978708     0.862725083829
C                     1.788480555182    -6.794933534027    -1.543367592113
C                     1.496909457880    -5.281941782745    -3.525884470897
C                    -2.354664816269    -3.469943295837     1.384336176951
N                    -4.841407469976    -3.324143194812     1.511258230241
O                    -3.804155545692    -2.750086957040    -0.413165801902
O                     0.408245919664    -6.501990999899    -1.255162643965
O                     1.690745202152    -4.218028026717    -2.574185277150
Cl                    1.096264105201    -1.421090984467    -1.986515066616
H                    -6.279674832312    -4.578101209192     6.436218770619
H                    -3.904789122928    -3.961876702205     6.059970778689
H                    -7.882850598994    -4.564717873025     4.518006442829
H                    -3.095138513039    -3.337644341702     3.831387793427
H                    -1.335281460105    -5.843615713004     0.456807924900
H                    -0.926275874805    -1.572208755531     0.003585101517
H                    -7.342211595153    -4.912642141596     1.408241683358
H                    -8.098771517112    -3.387061370308     1.879881350076
H                     3.197310641264    -6.582014818145    -3.148138140154
H                     1.711898706600    -7.417458599512    -3.623923090094
H                    -6.121196878303    -3.538358003269    -0.154392832945
H                    -6.398615316318    -2.082411629382     0.807062107812
H                     1.934466852499    -7.836669356737    -1.247529215075
H                     2.429124071557    -6.166179417759    -0.916855869567
H                     1.979045846706    -4.942948744881    -4.445711548791
H                     0.426476132781    -5.399460055371    -3.720698378077
H                    -2.450986932764    -4.357283518005     2.014857221216
H                    -2.087015815080    -2.637868542349     2.046118020972
