25   
torsion grid (-165,)
C        5.7313609040    0.8573853634    0.9102678095
C        6.4120169701    0.2921907269   -0.1741444624
C        4.3708739337    0.5869305110    1.0833626912
C        5.7324755576   -0.5296661336   -1.0769779247
C        3.6945165699   -0.2383108876    0.1784554945
C        0.0914067058   -2.1316358638   -1.4815846559
C        0.1083258189   -0.8728542716   -2.0391404393
C        4.3653776293   -0.7991702027   -0.9166228468
C        2.1680915539   -1.6756884920   -1.8501475502
C        1.9706835882    0.6652412768   -2.7961225075
C        3.6619215768   -1.7331949944   -1.8937580813
N        1.3758954147   -2.6212321486   -1.3663415541
N        1.4419856002   -0.5885074009   -2.2800899897
H        6.2569986285    1.4988288055    1.6129248732
H        7.4712579649    0.4916696858   -0.3165100975
H        3.8342506385    1.0142676259    1.9269176801
H        6.2691199035   -0.9640270176   -1.9186869530
H        2.6405183878   -0.4553152591    0.3304632888
H       -0.7664992356   -2.7110999490   -1.1656158907
H       -0.6777492216   -0.1748536128   -2.2917647026
H        2.3118158621    1.3141137849   -1.9836076726
H        1.1924060321    1.1772832693   -3.3652063636
H        2.8139937003    0.4712939396   -3.4626096527
H        4.0270551541   -1.5335834395   -2.9090253230
H        3.9331844140   -2.7685274029   -1.6651272737
25   
torsion grid (-150,)
C        5.6791947416    0.9107592140    0.8625929275
C        6.3013797210    0.4721735274   -0.3106353573
C        4.3891625469    0.4618490789    1.1658257518
C        5.6342910389   -0.4047699294   -1.1720262112
C        3.7264642470   -0.4160892204    0.3033329553
C        0.0379624323   -2.0432590997   -1.5190401258
C        0.1407356318   -0.7948270019   -2.0903111136
C        4.3408707024   -0.8567607490   -0.8779082685
C        2.1468684309   -1.7015096040   -1.8203030668
C        2.1080579604    0.6369312380   -2.7890325965
C        3.6374927512   -1.8362434613   -1.8072795393
N        1.2902360391   -2.5982427697   -1.3531797792
N        1.4950178723   -0.5835451368   -2.2868239919
H        6.1934218708    1.5949577670    1.5326182944
H        7.3037139351    0.8139592505   -0.5567344581
H        3.8983619605    0.7944954988    2.0771908103
H        6.1237652849   -0.7378559104   -2.0854312213
H        2.7256278002   -0.7643275770    0.5461129560
H       -0.8597235170   -2.5725450353   -1.2263896550
H       -0.5981691819   -0.0600194010   -2.3784578894
H        2.4487206531    1.2740349613   -1.9670954915
H        1.3808642882    1.1828404396   -3.3932815695
H        2.9669584957    0.3941967994   -3.4184402575
H        4.0456862560   -1.7317601727   -2.8200708084
H        3.8467004109   -2.8627738165   -1.4904572590
25   
torsion grid (-135,)
C        5.6351698488    0.9731482441    0.8284484241
C        6.1691467605    0.6583303812   -0.4243985462
C        4.4523248794    0.3533344972    1.2494057944
C        5.5223078805   -0.2685365902   -1.2497553848
C        3.8105003186   -0.5718729851    0.4229473729
C        0.0181665531   -1.9479997085   -1.5778943314
C        0.1964921822   -0.7176279739   -2.1691405578
C        4.3397779462   -0.8941034037   -0.8361982350
C        2.1507381186   -1.7007297132   -1.8020489507
C        2.2482210542    0.6102802173   -2.8301339915
C        3.6336223438   -1.9030352405   -1.7292925559
N        1.2387936217   -2.5503889782   -1.3512650361
N        1.5652882190   -0.5672280475   -2.3154660683
H        6.1335681763    1.6950363432    1.4702949723
H        7.0862001882    1.1351432581   -0.7615903444
H        4.0299572043    0.5923823169    2.2223158135
H        5.9411669309   -0.5044838284   -2.2262724610
H        2.8878744538   -1.0467024847    0.7485003629
H       -0.9119403958   -2.4322738254   -1.3094533476
H       -0.4984182034    0.0420723664   -2.4991329317
H        2.6469192783    1.2218611205   -2.0153339208
H        1.5449580508    1.2035709357   -3.4174677515
H        3.0756694498    0.3136643042   -3.4788796241
H        4.0780261857   -1.8764111867   -2.7317634459
H        3.7825734940   -2.9165546310   -1.3449832369
25   
torsion grid (-120,)
C        5.5900122311    0.9598368125    0.8721418138
C        5.9852327449    0.8055380461   -0.4593042286
C        4.5558276291    0.1643297227    1.3814942949
C        5.3496660327   -0.1385108649   -1.2746726304
C        3.9243608655   -0.7758431187    0.5649074308
C       -0.0128342566   -1.8215205501   -1.5202208577
C        0.2182221882   -0.6606926918   -2.2227819604
C        4.3193415986   -0.9419306411   -0.7717345974
C        2.1282976869   -1.6897204248   -1.7616701683
C        2.3216170814    0.5095606011   -3.0022887158
C        3.6006254829   -1.9522362907   -1.6528079753
N        1.1804876172   -2.4531241695   -1.2361176572
N        1.5923244225   -0.5842844345   -2.3791264519
H        6.0807546714    1.6925772567    1.5075828570
H        6.7860965687    1.4187896781   -0.8650133893
H        4.2411571315    0.2795518478    2.4157650045
H        5.6632091130   -0.2527513399   -2.3107393622
H        3.1117693212   -1.3834485622    0.9567736067
H       -0.9629262708   -2.2380468656   -1.2111903149
H       -0.4431320068    0.0940474800   -2.6251675073
H        2.7517576289    1.1766342281   -2.2495055207
H        1.6406111603    1.0756439007   -3.6405035155
H        3.1304640990    0.1184035385   -3.6239720300
H        4.0658717895   -1.9699913821   -2.6457085367
H        3.6984997926   -2.9581961254   -1.2357895462
25   
torsion grid (-105,)
C        5.5657789205    0.9257689446    0.9517422427
C        5.7931686329    0.9341680982   -0.4270632815
C        4.7061035640   -0.0321276450    1.5034749337
C        5.1632812622   -0.0091377421   -1.2472963777
C        4.0798958376   -0.9711493089    0.6813248614
C       -0.0337180130   -1.6541156252   -1.4578246573
C        0.2397849318   -0.5877797928   -2.2834476985
C        4.3088397964   -0.9765633686   -0.7033041628
C        2.1088124348   -1.6447517497   -1.7257842327
C        2.3738713518    0.3949848395   -3.2107196916
C        3.5670106013   -1.9707294943   -1.5837862963
N        1.1335936949   -2.3040953095   -1.1159203509
N        1.6146896051   -0.5888390257   -2.4552830749
H        6.0533205796    1.6568967636    1.5914690869
H        6.4604114749    1.6722718540   -0.8653882797
H        4.5223211071   -0.0440852772    2.5749357098
H        5.3557685360   -0.0017757388   -2.3183003944
H        3.3969617165   -1.7021200205    1.1080532056
H       -0.9976664901   -1.9924213890   -1.1000034094
H       -0.3923039060    0.1466447738   -2.7630268968
H        2.8257530816    1.1393622345   -2.5485837166
H        1.7076563307    0.8961682373   -3.9154174373
H        3.1670346099   -0.0959920528   -3.7796083818
H        4.0487731636   -2.0243030247   -2.5674677811
H        3.6118247989   -2.9714539461   -1.1478292869
25   
torsion grid (-90,)
C        5.4790889035    1.0037403967    1.0526609407
C        5.4850056444    1.1431323470   -0.3384477050
C        4.8289426024   -0.0914161781    1.6322686393
C        4.8429525002    0.1946798296   -1.1413913857
C        4.1888806197   -1.0361543001    0.8258702199
C       -0.1523046892   -1.4148699249   -1.2661716684
C        0.1281418280   -0.5331280797   -2.2841775079
C        4.1962763792   -0.9107253996   -0.5710484953
C        1.9792799979   -1.5417495647   -1.5901987070
C        2.2456518671    0.1752798967   -3.4489638023
C        3.4256362367   -1.9108565220   -1.4201643217
N        1.0025574687   -2.0374989475   -0.8436307565
N        1.4959233897   -0.6213940288   -2.4918052191
H        5.9774141675    1.7393968032    1.6787249373
H        5.9914721199    1.9877524267   -0.7992246021
H        4.8172953326   -0.2072750781    2.7131719635
H        4.8733632033    0.3043854464   -2.2226629908
H        3.6658558665   -1.8739684412    1.2805369828
H       -1.1142204326   -1.6422111647   -0.8248191522
H       -0.4944302605    0.1242728123   -2.8750735565
H        3.0918393115   -0.3976423410   -3.8332502184
H        2.6202957854    1.0964374800   -2.9919120217
H        1.5977773714    0.4310464249   -4.2901209675
H        3.9117491914   -2.0230483244   -2.3964402413
H        3.4347135521   -2.8921450039   -0.9414401414
25   
torsion grid (-75,)
C        5.5163652310    0.9506018500    1.1761964345
C        5.2666544323    1.2678073816   -0.1633505173
C        5.0853410580   -0.2789699381    1.6830419226
C        4.5917184331    0.3611314471   -0.9850722312
C        4.4103664766   -1.1828151820    0.8562976713
C       -0.1657471926   -1.1806207158   -1.2604320642
C        0.1373729910   -0.4746725138   -2.4014360393
C        4.1614989958   -0.8783276150   -0.4883818919
C        1.9542208693   -1.4458531395   -1.5736243317
C        2.2518367316   -0.0524195907   -3.6914617463
C        3.3842711262   -1.8541030334   -1.3599643337
N        0.9669954372   -1.7813073948   -0.7562628105
N        1.4978945008   -0.6511447632   -2.6023395274
H        6.0406185168    1.6547316033    1.8171579496
H        5.5982576746    2.2210686487   -0.5677555366
H        5.2705861078   -0.5339243221    2.7234966871
H        4.4124906468    0.6199242762   -2.0252836483
H        4.0631666250   -2.1303860795    1.2608655185
H       -1.1303856322   -1.2970400991   -0.7831737524
H       -0.4653405213    0.1120965188   -3.0807342313
H        3.1770629573   -0.6061158255   -3.8547591606
H        2.4996043598    0.9921495531   -3.4756115844
H        1.6632239027   -0.0938374867   -4.6114247649
H        3.8955475950   -1.9863241986   -2.3200805148
H        3.3584009965   -2.8330108793   -0.8769489390
25   
torsion grid (-60,)
C        5.6003022566    0.9162668799    1.2153432183
C        5.0878913535    1.3441378605   -0.0146182823
C        5.3703996350   -0.3965714186    1.6356293855
C        4.3559803364    0.4637553975   -0.8148469029
C        4.6371299395   -1.2743934259    0.8298510030
C       -0.1837227921   -1.0034339131   -1.3339147335
C        0.1798039227   -0.4100793654   -2.5205047853
C        4.1247331285   -0.8581760917   -0.4051375329
C        1.9306554280   -1.3791018635   -1.5566619796
C        2.3373514619   -0.2032893629   -3.7891708469
C        3.3350912854   -1.8274027252   -1.2734424839
N        0.9081584721   -1.6027666287   -0.7452375038
N        1.5370402950   -0.6553158280   -2.6622852298
H        6.1677904846    1.6009538211    1.8403270319
H        5.2562297259    2.3651691543   -0.3483223423
H        5.7572953235   -0.7379854476    2.5925104576
H        3.9557919757    0.8163010131   -1.7616527266
H        4.4534062160   -2.2912289742    1.1688961015
H       -1.1646551060   -1.0380005570   -0.8773067633
H       -0.3788745103    0.1398475507   -3.2652017346
H        3.3238507835   -0.6649715552   -3.7553479721
H        2.4616715192    0.8845231371   -3.7707806211
H        1.8564124527   -0.4879432517   -4.7294034800
H        3.8775133362   -2.0136554607   -2.2073205189
H        3.2593078170   -2.7886904781   -0.7607437243
25   
torsion grid (-45,)
C        5.7367701164    0.7589211481    1.2075858614
C        4.9962948794    1.2878646584    0.1450822563
C        5.6690230930   -0.6112548982    1.4765201283
C        4.2018217754    0.4517661257   -0.6438684496
C        4.8726119357   -1.4440250492    0.6837904198
C       -0.1415180944   -0.8410003753   -1.5403558548
C        0.3241899035   -0.3110316634   -2.7219213266
C        4.1313545271   -0.9251681486   -0.3858615280
C        1.9547458978   -1.3460625838   -1.6257356132
C        2.5546853150   -0.3656052118   -3.8961038926
C        3.3182822359   -1.8596445719   -1.2720377089
N        0.8777028049   -1.4800209637   -0.8676346951
N        1.6724670357   -0.6304736144   -2.7692116343
H        6.3522687884    1.4090496106    1.8239913208
H        5.0325062908    2.3539542699   -0.0654187389
H        6.2317919812   -1.0323538234    2.3059345443
H        3.6089099955    0.8835925578   -1.4460459240
H        4.8211830441   -2.5081746441    0.9038533668
H       -1.1454516778   -0.7959457195   -1.1379690274
H       -0.1573573684    0.2446449800   -3.5145181428
H        3.5857612073   -0.2646285372   -3.5542511438
H        2.2622877751    0.5727711788   -4.3726290558
H        2.5041107483   -1.1700056750   -4.6381184373
H        3.8872884141   -2.0868871730   -2.1812977956
H        3.1762677521   -2.8097931287   -0.7515483654
25   
torsion grid (-30,)
C        5.7767753368    0.7598243953    1.1083526193
C        4.8518210076    1.2912861913    0.2051172733
C        5.8428348511   -0.6259558169    1.2888721007
C        4.0048058295    0.4440455096   -0.5167028371
C        4.9946437354   -1.4689362039    0.5659163601
C       -0.1998039055   -0.7846289580   -1.6643961466
C        0.3645357923   -0.2668892775   -2.8080456850
C        4.0659375927   -0.9457668478   -0.3455717903
C        1.8827651339   -1.3489928232   -1.6009334001
C        2.6809851777   -0.3858755512   -3.8099010731
C        3.2049895279   -1.9004014038   -1.1647361019
N        0.7507826989   -1.4532427447   -0.9222911602
N        1.7023991668   -0.6259181183   -2.7595018199
H        6.4329534432    1.4178292161    1.6721695376
H        4.7832152671    2.3674633439    0.0661268627
H        6.5512179509   -1.0502736371    1.9960848881
H        3.2697825624    0.8746548923   -1.1912047892
H        5.0498175559   -2.5454256029    0.7157477385
H       -1.2283245068   -0.7115601846   -1.3348472708
H       -0.0424403139    0.3052530060   -3.6301645834
H        3.6741696162   -0.2548046692   -3.3766921549
H        2.4200446988    0.5300379282   -4.3442876896
H        2.7090035182   -1.2159607258   -4.5242346489
H        3.7780163945   -2.2420880755   -2.0359158980
H        2.9943275516   -2.7906219697   -0.5668824260
25   
torsion grid (-15,)
C        5.7984391903    0.7757674940    1.0131742770
C        4.7309355909    1.2922661375    0.2747552215
C        5.9721512567   -0.6110288496    1.0936326080
C        3.8451029148    0.4316190369   -0.3840145673
C        5.0858968317   -1.4657582990    0.4348507433
C       -0.2350609245   -0.7340328220   -1.7745129076
C        0.4148272809   -0.2453806475   -2.8854076096
C        4.0108430906   -0.9572031716   -0.3105773225
C        1.8231479129   -1.3494714164   -1.5714480217
C        2.7982660297   -0.4147309971   -3.7170786859
C        3.0999140689   -1.9308152131   -1.0512014223
N        0.6481554359   -1.4162064201   -0.9644256150
N        1.7362199301   -0.6381282792   -2.7471702393
H        6.4848206999    1.4443019464    1.5263565616
H        4.5810675352    2.3674177076    0.2136729099
H        6.7950203274   -1.0253352985    1.6709597962
H        3.0049315433    0.8476286479   -0.9329754545
H        5.2262953935   -2.5429946210    0.5036049497
H       -1.2804101496   -0.6311736312   -1.5130412406
H        0.0760307899    0.3252160628   -3.7389523106
H        3.7529798089   -0.2869543226   -3.2036613301
H        2.5890410448    0.4980293640   -4.2786896126
H        2.8768758918   -1.2516693500   -4.4195336886
H        3.6657769027   -2.3942324134   -1.8694505854
H        2.8191533792   -2.7416630868   -0.3736162404
25   
torsion grid (0,)
C        5.8028393465    0.7899531104    0.9336223578
C        4.6180027710    1.2784278148    0.3777582109
C        6.0699120685   -0.5836383302    0.8840496981
C        3.7061146262    0.4045026049   -0.2261533322
C        5.1588985266   -1.4525582698    0.2801866647
C       -0.2477849218   -0.6832538552   -1.8653806994
C        0.4757376576   -0.2305161337   -2.9457832526
C        3.9647293713   -0.9708601930   -0.2786860345
C        1.7785739247   -1.3523363077   -1.5419286541
C        2.9009487029   -0.4685075517   -3.6332416748
C        3.0106916795   -1.9560510287   -0.9463723799
N        0.5708522499   -1.3767756005   -0.9984175725
N        1.7752135965   -0.6585162335   -2.7303895960
H        6.5102343931    1.4690952905    1.4024752664
H        4.3978553144    2.3424869786    0.4152510196
H        6.9876046470   -0.9764189297    1.3148656928
H        2.7805682641    0.7956083267   -0.6392651741
H        5.3748538413   -2.5189634032    0.2435230555
H       -1.3024451681   -0.5474755821   -1.6630942437
H        0.2004547511    0.3364377471   -3.8242564972
H        3.8183634951   -0.3222114316   -3.0600474294
H        2.7310673503    0.4234436512   -4.2394659235
H        3.0250954387   -1.3296557672   -4.2989079815
H        3.5612115228   -2.5242221917   -1.7066377916
H        2.6695771754   -2.6838803962   -0.2041945735
25   
torsion grid (15,)
C        5.8863030600    0.8843939861    0.7763752381
C        4.6225035555    1.3317750796    0.3808277033
C        6.2080352106   -0.4712147641    0.6436641713
C        3.6874065925    0.4333037784   -0.1445295731
C        5.2721886522   -1.3649244440    0.1168385604
C       -0.1318388081   -0.5954928152   -2.0675211763
C        0.6892428924   -0.2003500270   -3.0996557880
C        3.9997946853   -0.9261167940   -0.2784191916
C        1.8392298359   -1.3166028016   -1.5647189566
C        3.1719838721   -0.4350343255   -3.5298709708
C        3.0022321944   -1.9268874905   -0.8492776435
N        0.5921851825   -1.2864894856   -1.1181385929
N        1.9503258604   -0.6722458686   -2.7758082781
H        6.6133559817    1.5828058527    1.1826814483
H        4.3613046529    2.3823854110    0.4815893574
H        7.1883527369   -0.8309247777    0.9464065172
H        2.7034791092    0.7894962347   -0.4379002434
H        5.5326608887   -2.4166504926    0.0112913611
H       -1.1957458229   -0.4285997635   -1.9583992473
H        0.5023211023    0.3445317877   -4.0145881465
H        3.8185877022   -1.3138645371   -3.4822987439
H        3.7222545735    0.4227715009   -3.1311058004
H        2.9197444371   -0.2487716944   -4.5756232331
H        3.5332620442   -2.6281705827   -1.5047911509
H        2.5790998529   -2.5247032773   -0.0357897047
25   
torsion grid (30,)
C        5.8797630277    0.9081429460    0.6853758082
C        4.5520216649    1.3107028938    0.5051131895
C        6.2433281131   -0.4107972948    0.3949653605
C        3.5968927727    0.4030461717    0.0382646930
C        5.2855207534   -1.3155883848   -0.0738584487
C       -0.1074622388   -0.5369985453   -2.1787944805
C        0.7797753446   -0.1911110850   -3.1731790665
C        3.9524657159   -0.9219668328   -0.2529452622
C        1.8115714629   -1.2992272415   -1.5537042970
C        3.2768130627   -0.4985622296   -3.4572040016
C        2.9178193222   -1.9182178215   -0.7581166981
N        0.5437513387   -1.2241591572   -1.1752435398
N        2.0078603034   -0.6877467126   -2.7703112699
H        6.6230393214    1.6147767712    1.0455163234
H        4.2592535527    2.3338746724    0.7276870982
H        7.2727619050   -0.7341862569    0.5281012931
H        2.5665297033    0.7215216386   -0.0987322012
H        5.5784522067   -2.3382751884   -0.3043891506
H       -1.1703559427   -0.3377581501   -2.1320249572
H        0.6585270129    0.3365817627   -4.1090043572
H        3.8886777582   -1.3990696088   -3.3705282194
H        3.8337371250    0.3419557160   -3.0319221369
H        3.0884342731   -0.3100065414   -4.5159133267
H        3.4224665975   -2.7006231662   -1.3380307162
H        2.4380606216   -2.4185147839    0.0890665995
25   
torsion grid (45,)
C        5.8824208361    0.9410558900    0.6362595375
C        4.5250946042    1.2812913408    0.6847121406
C        6.2589807464   -0.3208013543    0.1673904784
C        3.5552390701    0.3671047730    0.2666823692
C        5.2842633384   -1.2335885341   -0.2514826904
C       -0.0701165731   -0.5049633423   -2.2597787501
C        0.8650198294   -0.2247696237   -3.2305421883
C        3.9247084873   -0.9013974712   -0.2063164841
C        1.8032757475   -1.2816548485   -1.5211081503
C        3.3611734088   -0.6162132093   -3.4018146896
C        2.8610903927   -1.8927410874   -0.6538493880
N        0.5234131164   -1.1585743783   -1.1993738566
N        2.0630708488   -0.7291458493   -2.7533331006
H        6.6375401422    1.6530577893    0.9593521656
H        4.2229847521    2.2603536959    1.0484260889
H        7.3102249739   -0.5948738790    0.1245990183
H        2.5019258708    0.6357950416    0.2989429964
H        5.5857476131   -2.2123579473   -0.6200564858
H       -1.1285678344   -0.2783997761   -2.2660663808
H        0.7956217731    0.2638136148   -4.1925348635
H        3.9056256744   -1.5604336161   -3.3250891482
H        3.9639216352    0.1719070482   -2.9409958975
H        3.2139247592   -0.3876371557   -4.4588911802
H        3.3414596791   -2.7345993224   -1.1674984334
H        2.3417363619   -2.3075742157    0.2151227391
25   
torsion grid (60,)
C        5.8646843136    0.9762152917    0.6547410780
C        4.5131571442    1.2182304621    0.9316115161
C        6.2322123913   -0.1848716941   -0.0305233067
C        3.5386049665    0.3057754044    0.5228504158
C        5.2516189043   -1.0971092387   -0.4381468665
C       -0.0096392645   -0.3994847455   -2.3374962395
C        0.9441869521   -0.2452224817   -3.3177010194
C        3.8980803747   -0.8610500531   -0.1695630630
C        1.8113079697   -1.2351352398   -1.5319181929
C        3.4094244695   -0.7998772099   -3.4476448175
C        2.8214609993   -1.8428827197   -0.6049062587
N        0.5390336392   -1.0148135780   -1.2311816933
N        2.1078849353   -0.7869634179   -2.7974289296
H        6.6234036758    1.6866287651    0.9727510331
H        4.2206700569    2.1180567744    1.4671416370
H        7.2791577895   -0.3829058722   -0.2467996415
H        2.4879927566    0.4976368362    0.7291068171
H        5.5448885759   -2.0015748318   -0.9679894860
H       -1.0524813485   -0.1109834104   -2.3678838969
H        0.9086749702    0.1783466533   -4.3118105919
H        3.8954721767   -1.7675220004   -3.3014553319
H        4.0598620351   -0.0183646188   -3.0442964010
H        3.2750666085   -0.6410559733   -4.5191763392
H        3.2898711877   -2.7207926128   -1.0661674693
H        2.2599488436   -2.1988209963    0.2629473041
25   
torsion grid (75,)
C        5.8536469840    0.9969797451    0.7540551996
C        4.5397510402    1.1165572632    1.2231472592
C        6.1734089972   -0.0238902291   -0.1451996913
C        3.5551418232    0.2255667657    0.7907533851
C        5.1833002531   -0.9148077055   -0.5753892936
C        0.0663245263   -0.2084722727   -2.4050153569
C        1.0107237420   -0.2270124143   -3.4056491606
C        3.8633175437   -0.7943240242   -0.1224563322
C        1.8169881578   -1.1414473674   -1.5520419662
C        3.4039728594   -1.0269232005   -3.5274670880
C        2.7746803898   -1.7563713317   -0.5731197478
N        0.5769092123   -0.7770248561   -1.2568938531
N        2.1300602281   -0.8295957756   -2.8543361917
H        6.6207615204    1.6888624803    1.0921749523
H        4.2846487988    1.9024151824    1.9297527258
H        7.1931383616   -0.1330368071   -0.5062682563
H        2.5328007364    0.3254877318    1.1481235782
H        5.4465391127   -1.7185915449   -1.2600100030
H       -0.9461731024    0.1718467220   -2.4484440363
H        0.9954527937    0.1125437635   -4.4319849215
H        3.8092552969   -2.0128574244   -3.2872983545
H        4.1311625311   -0.2659825217   -3.2293358231
H        3.2496185664   -0.9744420030   -4.6067976235
H        3.2331234248   -2.6576649836   -0.9975859758
H        2.1725077706   -2.0719845003    0.2816493158
25   
torsion grid (90,)
C        5.8392593912    1.0223394887    0.8654425997
C        4.5907597545    0.9609023690    1.4939636084
C        6.0978917632    0.1966358009   -0.2328010309
C        3.6083603603    0.0864717421    1.0214107615
C        5.1113756084   -0.6770780979   -0.7015595608
C        0.1780255856   -0.0400940692   -2.4985589332
C        1.0733008258   -0.2617212852   -3.5192234120
C        3.8503822036   -0.7321148403   -0.0912042744
C        1.8548445377   -1.0663894062   -1.6041675407
C        3.3539337036   -1.3237278288   -3.6436764091
C        2.7668826249   -1.6819037789   -0.5807768891
N        0.6716602916   -0.5436848634   -1.3142015648
N        2.1451896903   -0.9246171957   -2.9418421207
H        6.6054079305    1.6997895135    1.2335988266
H        4.3839347893    1.5906959008    2.3556410064
H        7.0705714949    0.2241017333   -0.7179191166
H        2.6360265729    0.0485377001    1.5066227814
H        5.3369002569   -1.3347908340   -1.5372610412
H       -0.7901856097    0.4410815510   -2.5514038501
H        1.0515455357   -0.0293715842   -4.5749060075
H        3.7475192769   -2.2487608361   -3.2175992811
H        4.1244149607   -0.5489867270   -3.5806427248
H        3.1164437393   -1.5069728057   -4.6937334593
H        3.2277831113   -2.5945670730   -0.9763805696
H        2.1289858290   -1.9785404251    0.2538931403
25   
torsion grid (105,)
C        5.8031487088    1.0676401536    0.9754082700
C        4.6637852783    0.7724470763    1.7297803356
C        5.9611800637    0.4859399825   -0.2871613896
C        3.6902178359   -0.0948952854    1.2236789818
C        4.9854375284   -0.3798901865   -0.7882038464
C        0.3263021567    0.1390372534   -2.5888418413
C        1.1438375656   -0.2968300606   -3.6055195995
C        3.8352328602   -0.6773581861   -0.0421415458
C        1.9000860195   -0.9927210274   -1.6370810033
C        3.2597637561   -1.6493536600   -3.6946971516
C        2.7645236587   -1.6166505560   -0.5780732434
N        0.8024075554   -0.2996956980   -1.3725587249
N        2.1494694533   -1.0279839786   -2.9916508992
H        6.5613257543    1.7408275449    1.3671427655
H        4.5317134734    1.2170997162    2.7129918263
H        6.8466518251    0.7035370219   -0.8794449621
H        2.8014834483   -0.3119260735    1.8112317946
H        5.1294757339   -0.8322438419   -1.7657916491
H       -0.5765042541    0.7315197700   -2.6647400088
H        1.1053476971   -0.1744377747   -4.6790879878
H        3.6921034795   -2.4431689015   -3.0845526894
H        4.0411225947   -0.9184466137   -3.9279360450
H        2.9010877918   -2.0931259713   -4.6268413164
H        3.2299608925   -2.5354276514   -0.9518164598
H        2.0963582597   -1.9074001799    0.2350343969
25   
torsion grid (120,)
C        5.8225667342    1.0549461131    1.0397856146
C        4.8031624486    0.5780699678    1.8683012919
C        5.8379482594    0.6899988115   -0.3111593486
C        3.8098864837   -0.2598254867    1.3497421382
C        4.8434662519   -0.1462924846   -0.8237412658
C        0.4452110171    0.2229125134   -2.7055449535
C        1.2473906241   -0.3283682127   -3.6775841956
C        3.8188169418   -0.6353646088    0.0007438856
C        1.9276999045   -0.9429969173   -1.6543751231
C        3.2523313458   -1.8404406409   -3.6472757826
C        2.7358379623   -1.5542272405   -0.5466828481
N        0.8741883697   -0.1655740988   -1.4553109121
N        2.1964095622   -1.0784191389   -2.9999574098
H        6.5942329619    1.7077213454    1.4396119811
H        4.7769494438    0.8607197460    2.9177281185
H        6.6234802636    1.0599955591   -0.9655656109
H        3.0141102702   -0.6181476060    1.9985931087
H        4.8644512875   -0.4104102017   -1.8776544356
H       -0.4147120632    0.8675820155   -2.8354073430
H        1.2329238558   -0.2720410557   -4.7572754183
H        3.7567567953   -2.4734740072   -2.9176905363
H        3.9937542756   -1.1750862366   -4.1019118374
H        2.8293367755   -2.4821996896   -4.4254842070
H        3.1830661606   -2.5006101140   -0.8711703715
H        2.0348673916   -1.7998574321    0.2539880588
25   
torsion grid (135,)
C        5.8009884116    1.0242950207    1.0724018436
C        4.9099587867    0.3699744745    1.9280228614
C        5.6572866781    0.8780149242   -0.3114493536
C        3.8909274229   -0.4307046240    1.4019024003
C        4.6373107118    0.0773382810   -0.8321242743
C        0.4962555144    0.2543696749   -2.8573053892
C        1.3079444200   -0.3864280546   -3.7652366696
C        3.7489310317   -0.5974607089    0.0181660081
C        1.8913572996   -0.9019435503   -1.6855079202
C        3.1908976816   -2.0487461382   -3.5490615400
C        2.6461645287   -1.4923587250   -0.5323507290
N        0.8668325577   -0.0714789240   -1.5703836928
N        2.2077812100   -1.1214699222   -3.0087878640
H        6.5911604850    1.6507053850    1.4782407903
H        5.0018817948    0.4884272901    3.0048094356
H        6.3344068720    1.3959701862   -0.9862747600
H        3.1955348827   -0.9278213002    2.0747236538
H        4.5185555509    0.0023513778   -1.9099661549
H       -0.3262712845    0.9292874756   -3.0567131897
H        1.3330250914   -0.3943139962   -4.8460639776
H        4.0395559814   -2.1393067214   -2.8695884390
H        3.5606929821   -1.6692894113   -4.5042721001
H        2.7558654940   -3.0416840912   -3.7073245529
H        3.0674483485   -2.4653903385   -0.8119640831
H        1.9186932184   -1.6877274058    0.2589981498
25   
torsion grid (150,)
C        5.8410374478    0.9462021225    1.0318693934
C        5.0574979705    0.1747840577    1.8966982746
C        5.5342448219    0.9719221828   -0.3317066753
C        3.9854248782   -0.5691534641    1.3963124315
C        4.4604954973    0.2258362862   -0.8281365800
C        0.4938190555    0.2263217905   -2.9946838678
C        1.3666001366   -0.4376300720   -3.8265576825
C        3.6809220603   -0.5647009670    0.0274259319
C        1.8279476454   -0.8660880848   -1.6968930514
C        3.2621032168   -2.0577616615   -3.4203436867
C        2.5202128171   -1.4096298534   -0.4852428656
N        0.7895860096   -0.0452023121   -1.6755865883
N        2.2260541807   -1.1310188403   -2.9888538219
H        6.6724126770    1.5299616078    1.4185265447
H        5.2751859278    0.1592651634    2.9617679234
H        6.1245975801    1.5826480097   -1.0104209415
H        3.3753378740   -1.1584795550    2.0779569954
H        4.2136418851    0.2862807118   -1.8845798942
H       -0.3228697810    0.8815960198   -3.2693409111
H        1.4588687398   -0.4843260503   -4.9027449689
H        4.0898781201   -2.0552756611   -2.7090253997
H        3.6483157798   -1.7414035596   -4.3916263801
H        2.8711359066   -3.0771231314   -3.5104243909
H        2.8730800349   -2.4306863202   -0.6777377543
H        1.7656781459   -1.4888400353    0.3012573000
25   
torsion grid (165,)
C        5.8867179879    0.8795999951    0.9666206580
C        5.2042749327   -0.0044368916    1.8106939600
C        5.4306399252    1.0705807596   -0.3399636919
C        4.0831634433   -0.6932444934    1.3429642142
C        4.3063535631    0.3781890723   -0.8045428278
C        0.5023243885    0.1954246254   -3.1267851373
C        1.4283351777   -0.4945755672   -3.8761691467
C        3.6261645276   -0.5202968606    0.0272585743
C        1.7729061616   -0.8171336840   -1.7068160449
C        3.3317402707   -2.0511408185   -3.2803724726
C        2.4022786534   -1.3022327775   -0.4390014983
N        0.7254341315   -0.0104942509   -1.7816003632
N        2.2449193429   -1.1375064630   -2.9600052130
H        6.7575227191    1.4202196789    1.3283610611
H        5.5411778583   -0.1513639602    2.8339035219
H        5.9433426588    1.7668941846   -0.9990685927
H        3.5536270640   -1.3733144058    2.0077415614
H        3.9457060168    0.5611018582   -1.8128692806
H       -0.3045528622    0.8260566807   -3.4774244661
H        1.5811613974   -0.5909899776   -4.9421212621
H        4.1176174625   -1.9766909190   -2.5265599326
H        3.7604118753   -1.7786453477   -4.2469775834
H        2.9781999289   -3.0868314958   -3.3299051106
H        2.6687654599   -2.3631301604   -0.5307259221
H        1.6301427069   -1.2449746391    0.3327114981
25   
torsion grid (180,)
C        5.9128190876    0.8306406360    0.9050578376
C        5.3413518067   -0.1815350042    1.6857246712
C        5.3120908576    1.1856016122   -0.3051579022
C        4.1848982014   -0.8321277827    1.2509541140
C        4.1518284199    0.5318866882   -0.7368574165
C        0.5334335737    0.1652684566   -3.2270066337
C        1.4951687619   -0.5546313438   -3.8997052927
C        3.5807572864   -0.4907960513    0.0308278058
C        1.7324460975   -0.7844654052   -1.7049815886
C        3.3764107015   -2.0699238419   -3.1383886229
C        2.3053259164   -1.2129330913   -0.3915656879
N        0.6901821661    0.0172287347   -1.8645472188
N        2.2654328975   -1.1557725966   -2.9181416652
H        6.8125800730    1.3394850275    1.2411555566
H        5.7948725941   -0.4607002722    2.6335838644
H        5.7407679974    1.9780009290   -0.9138127676
H        3.7448546315   -1.6160357103    1.8649970459
H        3.6820302791    0.8325599035   -1.6691119993
H       -0.2552298895    0.7786533301   -3.6434069627
H        1.7019778835   -0.6937806505   -4.9517458525
H        4.1495352834   -1.9067003165   -2.3849605989
H        3.8109874580   -1.8792861165   -4.1215202608
H        3.0455864133   -3.1133474017   -3.0951146485
H        2.4893101062   -2.2948240189   -0.3901870120
H        1.5282203926   -1.0308130234    0.3564476837
