17   
torsion grid (-90,)
C       -2.2107163915   -0.8445376615   -2.3597496517
C       -1.4545378226   -0.0683499823   -1.4743117004
C       -0.6851578220   -2.0974449974   -0.3113830802
C       -2.2613431677   -2.2198496255   -2.1737458096
C       -1.4747802843   -2.8504974997   -1.1666423016
C       -0.7151600640   -0.7105297335   -0.4825499181
C       -2.8769862880   -3.3072662693   -2.9497276901
C       -2.4879859106   -5.0338433683   -1.5548638509
N       -3.5035505351   -4.1256306561   -1.8954557330
O       -3.0324646900   -3.4811468203   -4.1313829436
O       -2.4748550727   -6.2297763850   -1.5396528163
O       -1.3980544815   -4.2553236707   -1.0879870235
F        0.0275692216    0.0443261671    0.3574518152
H       -2.7736978523   -0.3831551655   -3.1652241066
H       -1.4176848091    1.0130668034   -1.5517078108
H       -0.0638611288   -2.5565587477    0.4499273616
H       -4.2514066068   -4.6723613094   -2.3342532576
17   
torsion grid (-75,)
C       -2.1961167508   -0.8781759093   -2.3653273465
C       -1.4309530577   -0.0811956026   -1.5131814532
C       -0.7008516256   -2.0796332895   -0.2790067762
C       -2.2632243965   -2.2531719520   -2.1441892876
C       -1.4964390612   -2.8491431994   -1.1194948784
C       -0.7050998876   -0.7022083438   -0.4951219587
C       -2.9769056657   -3.2630974209   -2.9452267550
C       -2.4590596650   -5.0262158213   -1.5109740905
N       -3.5020088949   -4.2123508651   -1.9866196354
O       -3.2786417118   -3.2597220497   -4.1169032510
O       -2.4221857501   -6.2241214569   -1.4560263083
O       -1.4389222016   -4.2359959064   -0.9813847044
F        0.0460148715    0.0684742252    0.3211209755
H       -2.7567771146   -0.4418496492   -3.1862741776
H       -1.3770444975    0.9960627407   -1.6293164125
H       -0.0955625085   -2.5264986017    0.5021618603
H       -4.1803466626   -4.8186206012   -2.4541414365
17   
torsion grid (-60,)
C       -2.1977659656   -0.8950822564   -2.3703978237
C       -1.4144438666   -0.0877679257   -1.5498131390
C       -0.7191004493   -2.0631103141   -0.2652966856
C       -2.2834591409   -2.2687934483   -2.1227907681
C       -1.5290924865   -2.8433126500   -1.0857817220
C       -0.6950281313   -0.6942783904   -0.5165254966
C       -3.0659593237   -3.2196277747   -2.9301151284
C       -2.4560119031   -5.0256925229   -1.4754541895
N       -3.4842773097   -4.2927758040   -2.0834228260
O       -3.4782868157   -3.0824592803   -4.0639197179
O       -2.4050758939   -6.2222835456   -1.3700878852
O       -1.4974198388   -4.2157303719   -0.8927877207
F        0.0732759202    0.0836021036    0.2753652040
H       -2.7612897055   -0.4751059173   -3.1978433772
H       -1.3430124764    0.9847843862   -1.6961693956
H       -0.1246988648   -2.5023112028    0.5283783455
H       -4.1082708395   -4.9294841634   -2.5804828069
17   
torsion grid (-45,)
C       -2.2068274613   -0.8988007747   -2.3756676486
C       -1.4048887082   -0.0897777792   -1.5782116315
C       -0.7315642037   -2.0503786020   -0.2641942114
C       -2.3054064005   -2.2714953160   -2.1130811369
C       -1.5562712349   -2.8335351433   -1.0696165923
C       -0.6862238099   -0.6881107451   -0.5384244142
C       -3.1326980666   -3.1828965533   -2.9185120129
C       -2.4575969480   -5.0254792971   -1.4551278137
N       -3.4397362184   -4.3563964534   -2.1862685554
O       -3.6351656306   -2.9531951525   -4.0032879626
O       -2.4077066258   -6.2177216606   -1.2942634737
O       -1.5505358318   -4.1944291598   -0.8332280934
F        0.0983065325    0.0918117501    0.2345819390
H       -2.7760531353   -0.4867457598   -3.2031011268
H       -1.3201076679    0.9790185079   -1.7435459566
H       -0.1443764761   -2.4862406025    0.5366336958
H       -4.0283597234   -5.0072041612   -2.7040125309
17   
torsion grid (-30,)
C       -2.1959801831   -0.9003815168   -2.3617958551
C       -1.3803060579   -0.0928334251   -1.5787258170
C       -0.7301003665   -2.0482108557   -0.2468896699
C       -2.3060511554   -2.2723855439   -2.0924306231
C       -1.5648775580   -2.8312907892   -1.0435128461
C       -0.6654915728   -0.6904959432   -0.5352344477
C       -3.1583863750   -3.1595615875   -2.8963176108
C       -2.4491971202   -5.0320735192   -1.4303200259
N       -3.3581902151   -4.4084029727   -2.2763307404
O       -3.7302860241   -2.8688871997   -3.9333807087
O       -2.4165386834   -6.2178859119   -1.2179540250
O       -1.5872363573   -4.1832551466   -0.7736567179
F        0.1316653130    0.0865392414    0.2272476881
H       -2.7675538006   -0.4907317361   -3.1886854446
H       -1.2833102101    0.9731534549   -1.7552299518
H       -0.1514893797   -2.4833997770    0.5604837131
H       -3.9297983198   -5.0629609270   -2.8053923975
17   
torsion grid (-15,)
C       -2.2152901558   -0.8932858729   -2.3670639125
C       -1.3836353018   -0.0899685012   -1.5975792700
C       -0.7421587578   -2.0441392203   -0.2607430190
C       -2.3310481742   -2.2651553980   -2.0955845542
C       -1.5890467824   -2.8242882235   -1.0482167502
C       -0.6649330208   -0.6893619135   -0.5574440832
C       -3.2052093255   -3.1355430271   -2.8938949699
C       -2.4664934288   -5.0280313434   -1.4362781236
N       -3.2945103569   -4.4378185128   -2.3780131569
O       -3.8458887792   -2.8031743737   -3.8781968598
O       -2.4621978492   -6.2068322309   -1.1826753786
O       -1.6368934154   -4.1689495844   -0.7538487647
F        0.1462232597    0.0836965923    0.1940217284
H       -2.7939790228   -0.4824446119   -3.1883455488
H       -1.2781425073    0.9741119213   -1.7805980465
H       -0.1661282296   -2.4803327694    0.5479182250
H       -3.8690730071   -5.0904185121   -2.9044762463
17   
torsion grid (0,)
C       -2.2318447483   -0.9083633184   -2.3827135970
C       -1.3959777284   -0.0935067931   -1.6303248688
C       -0.7374369458   -2.0297126884   -0.2760351896
C       -2.3348210398   -2.2791927242   -2.1001586183
C       -1.5856791999   -2.8222742152   -1.0497074714
C       -0.6658175829   -0.6786250882   -0.5900157203
C       -3.2132405575   -3.1584662557   -2.8840671155
C       -2.4440437732   -5.0375505886   -1.4149956311
N       -3.1813028491   -4.4916944882   -2.4522292237
O       -3.9177046625   -2.8184753631   -3.8214673504
O       -2.4741073298   -6.2029808019   -1.1063740205
O       -1.6435958941   -4.1587859227   -0.7237538133
F        0.1486500489    0.1057553112    0.1459534262
H       -2.8216105207   -0.5085039064   -3.2015071526
H       -1.2965030158    0.9689137030   -1.8259460819
H       -0.1584304488   -2.4535432713    0.5370559745
H       -3.7692715457   -5.1494934915   -2.9563823206
17   
torsion grid (15,)
C       -2.2148734362   -0.8933927680   -2.3674245570
C       -1.3654190895   -0.0944977012   -1.6129256194
C       -0.7263712330   -2.0480565771   -0.2740358176
C       -2.3270607157   -2.2661482836   -2.0989430456
C       -1.5844467739   -2.8254288330   -1.0520888283
C       -0.6379674974   -0.6960594931   -0.5801505788
C       -3.2172509728   -3.1325534304   -2.8837577174
C       -2.4586369890   -5.0299834132   -1.4428815109
N       -3.0809128459   -4.4909301284   -2.5577901593
O       -3.9767426044   -2.7706471899   -3.7680569974
O       -2.5491646086   -6.1852066036   -1.1094620186
O       -1.6760391465   -4.1592118518   -0.7208941217
F        0.1885126518    0.0731937371    0.1584123480
H       -2.8053460772   -0.4796255173   -3.1787896246
H       -1.2542397166    0.9681677884   -1.8007359739
H       -0.1546765018   -2.4831686079    0.5382769818
H       -3.6902916760   -5.1348757318   -3.0549456710
17   
torsion grid (30,)
C       -2.2143626047   -0.8958142751   -2.3463302187
C       -1.3487275146   -0.1006868213   -1.6053162121
C       -0.7159038065   -2.0517382441   -0.2588405339
C       -2.3293356611   -2.2665971829   -2.0728330514
C       -1.5850756596   -2.8262666086   -1.0265121234
C       -0.6170954586   -0.7025300715   -0.5759810924
C       -3.2323772885   -3.1411661477   -2.8340374919
C       -2.4563584099   -5.0302914468   -1.4242879210
N       -2.9676984048   -4.5054967715   -2.6050032156
O       -4.0626775476   -2.7862443827   -3.6536056128
O       -2.5917564585   -6.1743174003   -1.0704681809
O       -1.7053371344   -4.1538874528   -0.6742488793
F        0.2227937815    0.0638824197    0.1505290692
H       -2.8114264457   -0.4798298646   -3.1517658646
H       -1.2297144061    0.9598248043   -1.8003546811
H       -0.1454859072   -2.4848872697    0.5554300011
H       -3.5804891066   -5.1498156694   -3.0994002651
17   
torsion grid (45,)
C       -2.2256917826   -0.8941043874   -2.3597794438
C       -1.3441759255   -0.1048753095   -1.6292940662
C       -0.7327821405   -2.0500870721   -0.2631695554
C       -2.3488065353   -2.2607009412   -2.0765535155
C       -1.6116514759   -2.8197700781   -1.0230097714
C       -0.6167578232   -0.7053906991   -0.5968775420
C       -3.2633744700   -3.1503952507   -2.8085313752
C       -2.4770191762   -5.0206522483   -1.4388032524
N       -2.8568740483   -4.5013135930   -2.6768796680
O       -4.1651790042   -2.8213945191   -3.5571852487
O       -2.6654355743   -6.1536441276   -1.0773658445
O       -1.7698986658   -4.1398936746   -0.6486079510
F        0.2355923640    0.0576613555    0.1190529947
H       -2.8228962620   -0.4750839189   -3.1636590162
H       -1.2121608131    0.9521782943   -1.8343766768
H       -0.1698958310   -2.4799147624    0.5581083161
H       -3.4556406304   -5.1495952502   -3.1860911831
17   
torsion grid (60,)
C       -2.2208103630   -0.8893446312   -2.3509878903
C       -1.3153669046   -0.1124022341   -1.6331855355
C       -0.7390249408   -2.0581712534   -0.2485278542
C       -2.3601253609   -2.2497248964   -2.0582589737
C       -1.6332956385   -2.8174101542   -0.9980808004
C       -0.5965279186   -0.7187831147   -0.5994216807
C       -3.2933819702   -3.1630676273   -2.7386987008
C       -2.4966158114   -5.0155981389   -1.4413066203
N       -2.7354240003   -4.4789637521   -2.7137504845
O       -4.2794982330   -2.8832206084   -3.3895450914
O       -2.7391679111   -6.1392193319   -1.0889296534
O       -1.8394122717   -4.1307062147   -0.6049541050
F        0.2753105586    0.0333443048    0.1053335075
H       -2.8165413722   -0.4613522767   -3.1513201823
H       -1.1625170955    0.9399078526   -1.8480599589
H       -0.1848146430   -2.4873860016    0.5789712652
H       -3.3059730466   -5.1289545873   -3.2558010883
17   
torsion grid (75,)
C       -2.2114566215   -0.8743505156   -2.3524084473
C       -1.2765445303   -0.1195920142   -1.6431229024
C       -0.7590741332   -2.0651695680   -0.2300057754
C       -2.3787096857   -2.2244476985   -2.0469813785
C       -1.6712312636   -2.8056942990   -0.9723795870
C       -0.5770891400   -0.7340431689   -0.6028451331
C       -3.3315162801   -3.1749122760   -2.6467581102
C       -2.5301458693   -5.0085470653   -1.4511744802
N       -2.6184769334   -4.4320280142   -2.7303083313
O       -4.4055849109   -2.9794954891   -3.1683615448
O       -2.8191894361   -6.1254190922   -1.1219208688
O       -1.9369478376   -4.1121818148   -0.5622208296
F        0.3181165999    0.0008051188    0.0921261406
H       -2.7967853565   -0.4318810542   -3.1525874782
H       -1.0913600517    0.9250276865   -1.8697401721
H       -0.2203225843   -2.4954998839    0.6071623471
H       -3.1453359781   -5.0759545837   -3.3253382630
17   
torsion grid (90,)
C       -2.1947836692   -0.8484820874   -2.3730917778
C       -1.2328876048   -0.1234391862   -1.6608052730
C       -0.7968951281   -2.0696934809   -0.2173155598
C       -2.3977269146   -2.1859427440   -2.0590025305
C       -1.7192617621   -2.7896883996   -0.9608947700
C       -0.5661633598   -0.7476024360   -0.6079223707
C       -3.3612010802   -3.1868740403   -2.5422324028
C       -2.5702775223   -5.0133809195   -1.4856553790
N       -2.5072302047   -4.3733536798   -2.7341096762
O       -4.5135482747   -3.1129286206   -2.8847878469
O       -2.8934711195   -6.1256723548   -1.1873055056
O       -2.0490672031   -4.0934398312   -0.5400954215
F        0.3482808880   -0.0354663173    0.0875708335
H       -2.7580546306   -0.3869958538   -3.1783032783
H       -1.0074781483    0.9110998901   -1.8968828977
H       -0.2825551258   -2.5022419326    0.6340056506
H       -2.9810204125   -4.9882203945   -3.4035954858
