14   
torsion grid (-165,)
C       -0.2226211213   -1.1393179106   -1.6263469805
C       -0.4210196745   -0.6899892821   -0.1714155222
C       -0.2130573324    1.8423335621   -0.6725785793
C        0.2429585020    0.6467422854    0.1524288744
Cl      -2.0077142621    2.0696081153   -0.6941567811
Cl       0.0333955881    1.0083899636    1.9319933718
H       -0.5039907874   -0.3687694238   -2.3496584863
H        0.8111046566   -1.4485401138   -1.8159062128
H       -0.8536506188   -2.0109988724   -1.8264119962
H       -1.4856499105   -0.6412351259    0.0711127143
H        0.0078058558   -1.4416507849    0.4986063847
H        0.0955412942    1.7109702060   -1.7112416881
H        0.2184949007    2.7651580060   -0.2860782812
H        1.3264752839    0.5709828782    0.0134099875
14   
torsion grid (-150,)
C       -0.1849889650   -1.1714246443   -1.6324137532
C       -0.4006821724   -0.7022617647   -0.1812958799
C       -0.2539231609    1.8415630528   -0.6459080310
C        0.2566674340    0.6387063449    0.1372254014
Cl      -2.0486889767    2.0531300642   -0.5691870763
Cl       0.1182717854    0.9707810183    1.9287353492
H       -0.2107176452   -0.3545953922   -2.3589519609
H        0.7595092407   -1.7135461838   -1.7422943333
H       -0.9789708249   -1.8695028225   -1.9151281834
H       -1.4659509183   -0.6577731755    0.0578563833
H        0.0230635034   -1.4457270857    0.5004976150
H       -0.0005216223    1.7299239078   -1.7014921181
H        0.1897664273    2.7625116525   -0.2687998604
H        1.3340381222    0.5824385679   -0.0509021000
14   
torsion grid (-135,)
C       -0.1623018985   -1.1788838441   -1.6244864591
C       -0.3709741017   -0.7056857606   -0.1677697655
C       -0.2958712300    1.8387648899   -0.6438206181
C        0.2632077945    0.6517695061    0.1312951691
Cl      -2.0924966189    2.0104739119   -0.5197281077
Cl       0.1560268191    0.9885126424    1.9241391255
H        0.0876165890   -0.3638759707   -2.3100434365
H        0.6319308326   -1.9279705062   -1.6908084617
H       -1.0734892109   -1.6445854337   -2.0099985681
H       -1.4337841951   -0.6659770879    0.0811655646
H        0.0707258766   -1.4320676546    0.5194765791
H       -0.0699732261    1.7282373083   -1.7056526297
H        0.1362806002    2.7715582455   -0.2827650201
H        1.3372629537    0.6205640987   -0.0798969400
14   
torsion grid (-120,)
C       -0.1470580415   -1.1758751462   -1.6273464114
C       -0.3504524715   -0.7154814203   -0.1632151376
C       -0.3484104665    1.8181697786   -0.6749882288
C        0.2513666096    0.6619941280    0.1160858711
Cl      -2.1453650761    1.9576305238   -0.5144560686
Cl       0.1506193196    1.0231327480    1.9036722195
H        0.3920732212   -0.4349672403   -2.2273507882
H        0.4405033558   -2.0967241270   -1.6751684503
H       -1.1017910616   -1.3561425782   -2.1275290416
H       -1.4128161675   -0.6742509968    0.0873407602
H        0.1108582509   -1.4250047765    0.5274420855
H       -0.1454842163    1.6821684026   -1.7386033474
H        0.0723632386    2.7687161379   -0.3482784226
H        1.3238773120    0.6567526484   -0.1045401669
14   
torsion grid (-105,)
C       -0.1521637927   -1.1560008042   -1.6207222754
C       -0.3101806521   -0.7306479286   -0.1435533596
C       -0.3739483966    1.7915486581   -0.6888153205
C        0.2570896580    0.6650435359    0.1198089294
Cl      -2.1747815327    1.8818363459   -0.5317388686
Cl       0.1511257870    1.0461904662    1.9024343126
H        0.5987375552   -0.5480493936   -2.1395748616
H        0.2037322859   -2.1870802928   -1.6967797577
H       -1.0880821070   -1.0614386250   -2.1766121296
H       -1.3653180684   -0.7072702440    0.1389192688
H        0.1979425725   -1.4312145049    0.5227145005
H       -0.1657230323    1.6421402565   -1.7497514241
H        0.0186179609    2.7591607860   -0.3775045062
H        1.3288587938    0.6845450516   -0.1034384635
14   
torsion grid (-90,)
C       -0.1563038954   -1.1297123020   -1.6169933829
C       -0.2782992022   -0.7322928240   -0.1338104070
C       -0.4044571564    1.7841551336   -0.6900831298
C        0.2510928251    0.6783175872    0.1262986382
Cl      -2.2082655211    1.8241494676   -0.5438326005
Cl       0.1317548472    1.0629595989    1.9073560012
H        0.7296803130   -0.6781702841   -2.0804749703
H       -0.0267632254   -2.2109875810   -1.7181875365
H       -1.0303267143   -0.8211632257   -2.1966295671
H       -1.3247988557   -0.7508590357    0.1807689605
H        0.2777928671   -1.4245456987    0.5031394616
H       -0.1842739564    1.6353664354   -1.7488385290
H       -0.0411300571    2.7636089936   -0.3802974495
H        1.3226994689    0.7235143682   -0.0940681466
14   
torsion grid (-75,)
C       -0.1445553523   -1.1371900163   -1.6207186953
C       -0.2557004158   -0.7430556530   -0.1401523516
C       -0.4418448578    1.7745166224   -0.6857274870
C        0.2416596969    0.6788921394    0.1205920301
Cl      -2.2453486715    1.7715607172   -0.5343976548
Cl       0.1272372860    1.0520419198    1.9045683867
H        0.8316257717   -0.8602600004   -2.0379537680
H       -0.2375992461   -2.2214968576   -1.7326857448
H       -0.9212755859   -0.6632198683   -2.2273590368
H       -1.2956303156   -0.8071086376    0.1906838457
H        0.3323260014   -1.4238057162    0.4812906914
H       -0.2201042248    1.6384254524   -1.7459399187
H       -0.0998891330    2.7597929974   -0.3700755455
H        1.3103418694    0.7494729971   -0.1074177725
14   
torsion grid (-60,)
C       -0.1245217147   -1.1427601313   -1.6192468546
C       -0.2302567280   -0.7316735770   -0.1447207219
C       -0.4625481957    1.7881510628   -0.6815672989
C        0.2438851546    0.6979588762    0.1121025451
Cl      -2.2650786598    1.7465958231   -0.5288939442
Cl       0.1381327953    1.0623736316    1.8991104684
H        0.9018764784   -1.0541183660   -1.9936316742
H       -0.4355839891   -2.1849203284   -1.7389751004
H       -0.7762455855   -0.5380254090   -2.2571322714
H       -1.2615248176   -0.8351234895    0.2029597613
H        0.3799736872   -1.3997239364    0.4705792999
H       -0.2382014331    1.6707422475   -1.7433817999
H       -0.1401407954    2.7761156110   -0.3540566367
H        1.3095069964    0.7866778555   -0.1238458520
14   
torsion grid (-45,)
C       -0.1043215657   -1.1646289686   -1.6318452949
C       -0.2271015957   -0.7347570856   -0.1625604238
C       -0.5116865691    1.7900256144   -0.6685840266
C        0.2277393372    0.7002753871    0.0957913106
Cl      -2.3108235433    1.7052373413   -0.4992695302
Cl       0.1490265521    1.0431454232    1.8894363589
H        0.9399856809   -1.2812879273   -1.9400059242
H       -0.6239741731   -2.1148642678   -1.7862245413
H       -0.5805908880   -0.4473823495   -2.3077269865
H       -1.2542821851   -0.8654016764    0.1872243239
H        0.3895381398   -1.3919665299    0.4584874986
H       -0.2957714048    1.7024114781   -1.7348569345
H       -0.2074521577    2.7775663175   -0.3230105189
H        1.2871863436    0.8097735584   -0.1585875426
14   
torsion grid (-30,)
C       -0.0679039795   -1.1885520279   -1.6372148055
C       -0.2154890304   -0.7347927566   -0.1729190329
C       -0.5531622560    1.7895880607   -0.6498881622
C        0.2323402279    0.7040875143    0.0751409414
Cl      -2.3404332106    1.6938555600   -0.3886683913
Cl       0.2224833730    1.0390316010    1.8714743303
H        0.9440591327   -1.5412904711   -1.8566877454
H       -0.7801201187   -1.9876650561   -1.8607808948
H       -0.2990741181   -0.3845883812   -2.3436514925
H       -1.2442926828   -0.8657168847    0.1710852644
H        0.3922648958   -1.3819899757    0.4667135879
H       -0.3930637568    1.7060313147   -1.7260915375
H       -0.2373519025    2.7784621352   -0.3188427194
H        1.2786856367    0.8284414188   -0.2231677808
14   
torsion grid (-15,)
C       -0.0447844704   -1.1890600395   -1.6342876199
C       -0.1860691408   -0.7327149353   -0.1644081734
C       -0.5930134233    1.7798303583   -0.6423540841
C        0.2357566896    0.7169492247    0.0688194428
Cl      -2.3704557689    1.6480933416   -0.3325041135
Cl       0.2571008256    1.0599334234    1.8635634702
H        0.8641129879   -1.7764355484   -1.7898511991
H       -0.9047275011   -1.7903387868   -1.9406503480
H       -0.0053174452   -0.3458499181   -2.3315773056
H       -1.2104624558   -0.8676198944    0.1899611505
H        0.4369972059   -1.3622265867    0.4766263342
H       -0.4618251711    1.6917069465   -1.7220534040
H       -0.2903670519    2.7778812824   -0.3268943115
H        1.2721266042    0.8640572469   -0.2528188512
14   
torsion grid (0,)
C       -0.0353520957   -1.1742527263   -1.6432447731
C       -0.1552749624   -0.7411244933   -0.1615954757
C       -0.6353549192    1.7522906244   -0.6471216755
C        0.2324673714    0.7206210613    0.0633961875
Cl      -2.4025310734    1.5857700049   -0.2952731381
Cl       0.2662907351    1.0763788677    1.8548221048
H        0.6891370432   -1.9851163650   -1.7591633788
H       -0.9921633729   -1.5303697544   -2.0335155560
H        0.2974620243   -0.3605147267   -2.2957415576
H       -1.1760323376   -0.8775179547    0.2022058798
H        0.4911615349   -1.3558030609    0.4689178659
H       -0.5263702492    1.6453575294   -1.7277273849
H       -0.3499020848    2.7628259002   -0.3562249483
H        1.2603347923    0.8935582186   -0.2720518893
14   
torsion grid (15,)
C       -0.0433466464   -1.1466633400   -1.6453203827
C       -0.1101400928   -0.7521570069   -0.1525484016
C       -0.6600684120    1.7205304492   -0.6468168017
C        0.2365374983    0.7202333980    0.0719028304
Cl      -2.4224039987    1.5026439643   -0.2970616193
Cl       0.2596817662    1.0817424423    1.8616749898
H        0.4481226712   -2.1170493962   -1.7626831402
H       -1.0418220210   -1.2473632667   -2.0790470394
H        0.5263035491   -0.4310963683   -2.2477892293
H       -1.1171883877   -0.9083934454    0.2410699569
H        0.5791829077   -1.3539256883    0.4438620303
H       -0.5451401789    1.6059178301   -1.7261613758
H       -0.4063482325    2.7417622643   -0.3639349336
H        1.2591284262    0.9219803647   -0.2635786951
14   
torsion grid (30,)
C       -0.0456454304   -1.1327251570   -1.6403623612
C       -0.0728163954   -0.7576965624   -0.1465197830
C       -0.6896244125    1.6968725696   -0.6470572430
C        0.2314133972    0.7239957505    0.0769778096
Cl      -2.4465044690    1.4267261819   -0.3045629846
Cl       0.2426334106    1.0886374963    1.8662096839
H        0.2214776795   -2.1874554118   -1.7580828670
H       -1.0285979101   -1.0065902458   -2.1031297146
H        0.6914734725   -0.5510020588   -2.2052059022
H       -1.0613457994   -0.9544407848    0.2757342944
H        0.6590755893   -1.3412819070    0.4172774319
H       -0.5649238381    1.5829933272   -1.7255243324
H       -0.4679231359    2.7256667765   -0.3646688748
H        1.2487664680    0.9528142737   -0.2570970441
14   
torsion grid (45,)
C       -0.0393007931   -1.1257409721   -1.6363060368
C       -0.0528617676   -0.7448826247   -0.1482832667
C       -0.7179947694    1.7009281739   -0.6427929138
C        0.2233745391    0.7422675572    0.0731586769
Cl      -2.4680383357    1.3957904580   -0.2966827850
Cl       0.2416602952    1.1041511799    1.8629678209
H        0.0121992048   -2.2138414613   -1.7430169105
H       -0.9520073769   -0.7988325128   -2.1434791747
H        0.8259467383   -0.7045747552   -2.1609936088
H       -1.0253561591   -0.9812456494    0.2913600695
H        0.7048472462   -1.3123736883    0.3989268511
H       -0.5931072859    1.5953091845   -1.7221317207
H       -0.5143573656    2.7321988088   -0.3558375855
H        1.2338909973    0.9901643206   -0.2681141525
14   
torsion grid (60,)
C       -0.0237648548   -1.1641821192   -1.6499745476
C       -0.0298012193   -0.7713129396   -0.1668083912
C       -0.7509820404    1.6696418419   -0.6292150782
C        0.2196728867    0.7189610436    0.0577325055
Cl      -2.4893269067    1.3175005956   -0.2715803976
Cl       0.2640267786    1.0654120710    1.8507610652
H       -0.1693182123   -2.2434767193   -1.7527617321
H       -0.8241789811   -0.6683751798   -2.2074217838
H        0.9294129472   -0.9109207738   -2.1289238804
H       -0.9806826348   -1.0498012548    0.2953026035
H        0.7518966119   -1.3228459271    0.3645595010
H       -0.6346145813    1.5917489185   -1.7117849656
H       -0.5671420729    2.6988081601   -0.3221702109
H        1.2191585705    0.9885300764   -0.2993466638
14   
torsion grid (75,)
C       -0.0028643221   -1.1721073388   -1.6509675517
C       -0.0235001060   -0.7533430076   -0.1731096892
C       -0.7935130375    1.6809864875   -0.6144042055
C        0.2076259742    0.7407924671    0.0432781255
Cl      -2.5180032079    1.2921727318   -0.2304287164
Cl       0.2879324761    1.0836448120    1.8367692335
H       -0.3552374342   -2.2015045270   -1.7601060870
H       -0.6339136980   -0.5316363678   -2.2742817661
H        1.0122733276   -1.1212030800   -2.0608365054
H       -0.9639582428   -1.0533198519    0.2961806541
H        0.7655602440   -1.2893263989    0.3633853219
H       -0.6961371301    1.6219412070   -1.6998714793
H       -0.6225660673    2.7090998176   -0.2966552817
H        1.1945044664    1.0265465663   -0.3356464954
14   
torsion grid (90,)
C        0.0085806838   -1.1808171144   -1.6614032804
C       -0.0457052319   -0.7459744603   -0.1844814218
C       -0.8587127872    1.6792095475   -0.5967146588
C        0.1761737753    0.7500394402    0.0255459433
Cl      -2.5630226517    1.2843685008   -0.1376798306
Cl       0.3104503437    1.0948811840    1.8148132611
H       -0.5572825816   -2.1027209055   -1.8169429238
H       -0.3892117111   -0.4216069298   -2.3414290003
H        1.0416267002   -1.3652800489   -1.9753823407
H       -0.9903798995   -1.0462426745    0.2755883955
H        0.7332338217   -1.2747610544    0.3729617561
H       -0.8089520974    1.6131687616   -1.6848020280
H       -0.6800043078    2.7106489271   -0.2943411587
H        1.1463506861    1.0476704588   -0.3862304556
14   
torsion grid (105,)
C        0.0398137402   -1.1737480174   -1.6595158395
C       -0.0100098939   -0.7369443929   -0.1776360036
C       -0.8920998798    1.6640526016   -0.5816442897
C        0.1807945914    0.7657783745    0.0220684675
Cl      -2.5746907053    1.2329292678   -0.0760166686
Cl       0.3434505358    1.1236593531    1.8064736359
H       -0.7242450020   -1.9240251475   -1.8772480111
H       -0.1130009403   -0.3405838280   -2.3524268867
H        1.0134874849   -1.6062368988   -1.9087126082
H       -0.9501107538   -1.0404568744    0.2885925968
H        0.7800317603   -1.2449261317    0.3816702561
H       -0.8694881464    1.5890059149   -1.6700216909
H       -0.7315431380    2.7022142356   -0.2923893482
H        1.1341513568    1.0854573287   -0.4116723009
14   
torsion grid (120,)
C        0.0684094762   -1.1600970033   -1.6628870885
C        0.0342128847   -0.7391864665   -0.1734165082
C       -0.9211436239    1.6280490451   -0.5782084364
C        0.1858715911    0.7696037705    0.0216584251
Cl      -2.5821866933    1.1664907005   -0.0284690576
Cl       0.3569563942    1.1427835441    1.8013273224
H       -0.8520094774   -1.6747038683   -1.9510030918
H        0.1743019784   -0.3052406317   -2.3390427042
H        0.9052000751   -1.8331702043   -1.8673544235
H       -0.9026777128   -1.0464365730    0.2965243188
H        0.8403841002   -1.2270604529    0.3792119653
H       -0.9189693339    1.5263737417   -1.6647973027
H       -0.7817520768    2.6764406498   -0.3159322254
H        1.1241493369    1.1151954319   -0.4246121949
14   
torsion grid (135,)
C       -0.2544225052   -1.1597733145   -1.6278087601
C       -0.5020950630   -0.7038630121   -0.1718519522
C       -0.0809521296    1.7912189486   -0.6836781123
C        0.2596744563    0.5770036790    0.1713964894
Cl      -1.8471883442    2.1844665425   -0.7213002191
Cl       0.0252651827    0.9776992174    1.9373595148
H       -1.1095421844   -0.9162866169   -2.2650997664
H        0.6124206546   -0.6625913192   -2.0774120380
H       -0.0890428907   -2.2383047839   -1.6879140906
H       -1.5630410251   -0.5016230237   -0.0078491884
H       -0.1966366146   -1.4756607788    0.5382121160
H        0.2140171648    1.6060224391   -1.7180768537
H        0.4321855770    2.6797181656   -0.3168533533
H        1.3372792544    0.4143670130    0.0655592382
14   
torsion grid (150,)
C       -0.2573834239   -1.1297061085   -1.6210387703
C       -0.4758654624   -0.7076130798   -0.1554401308
C       -0.1141532440    1.7918059929   -0.6860101531
C        0.2530429042    0.5939133974    0.1798093142
Cl      -1.8901311954    2.1386159428   -0.7324328376
Cl       0.0080745784    1.0008720477    1.9429789286
H       -1.0121096321   -0.6795882564   -2.2732791487
H        0.7183310028   -0.8042402549   -2.0007748816
H       -0.3222419004   -2.2149565294   -1.7345523029
H       -1.5389133769   -0.5451150738    0.0389230281
H       -0.1208985875   -1.4793081340    0.5321419104
H        0.1901466646    1.6039453683   -1.7173721348
H        0.3744624777    2.6964263983   -0.3251536492
H        1.3343470888    0.4559495468    0.0764761372
14   
torsion grid (165,)
C       -0.2536458786   -1.1327114411   -1.6241813456
C       -0.4565155030   -0.7190090271   -0.1585789469
C       -0.1518385071    1.7912063947   -0.6853550387
C        0.2441318290    0.5984542227    0.1740141993
Cl      -1.9350679363    2.0975559023   -0.7268459858
Cl       0.0020582023    0.9936808794    1.9403083729
H       -0.8795019176   -0.5355157225   -2.2949221138
H        0.7873599346   -1.0035025791   -1.9436112665
H       -0.5237747228   -2.1824804359   -1.7683639781
H       -1.5220240336   -0.6021218161    0.0557639198
H       -0.0649321044   -1.4863816996    0.5147466528
H        0.1557324580    1.6146062049   -1.7177909979
H        0.3173580606    2.7048166512   -0.3213256126
H        1.3275880608    0.4846824718    0.0633855436
14   
torsion grid (180,)
C       -0.2428827882   -1.1287406389   -1.6248571053
C       -0.4364931623   -0.7034311661   -0.1633482444
C       -0.1747789659    1.8170456203   -0.6802455677
C        0.2449378897    0.6235085461    0.1665362759
Cl      -1.9637045625    2.0858512445   -0.7218022037
Cl       0.0119095811    1.0049574268    1.9376134502
H       -0.7152898541   -0.4291299247   -2.3207807991
H        0.8187958718   -1.2136443624   -1.8842997313
H       -0.6989984567   -2.1096860705   -1.7896916015
H       -1.5017449090   -0.6260411925    0.0700536523
H       -0.0208015503   -1.4657445646    0.5025761270
H        0.1397243122    1.6602698645   -1.7137294049
H        0.2742400492    2.7358005882   -0.3040510768
H        1.3290580391    0.5268899409    0.0461974986
