18   
torsion grid (-165,)
C        1.0378664772    0.0885317471   -0.7264598212
C       -0.3430133500    1.1619304139    1.0420322524
C       -1.3960197180   -0.1272251449   -0.8021956661
C       -0.1240465437   -1.2911116090    0.9778249065
N        1.7646070220   -0.9222314909   -0.8657279491
N       -0.1979622243   -0.0407417891    0.1263320894
O        1.0810326323    1.3470746011   -1.1997127292
H       -1.2160441406    0.9926762796    1.6712148146
H        0.5538356946    1.2406680628    1.6563068586
H       -0.4721404778    2.0600663247    0.4442063827
H       -2.2932506348   -0.2133731994   -0.1895238416
H       -1.4362111129    0.7759304745   -1.4089810256
H       -1.2793604598   -1.0098106260   -1.4305375636
H       -1.0443360218   -1.3386753451    1.5590888232
H       -0.0254421909   -2.1590778250    0.3316930241
H        0.7433092473   -1.2203850941    1.6311882038
H        2.5811003898   -0.8014215252   -1.4669290677
H        1.8448617475    1.4739574519   -1.7925651551
18   
torsion grid (-150,)
C        1.0367368241    0.0882646315   -0.7346416850
C       -0.3876110124    1.1835844799    1.0187146475
C       -1.3849362415   -0.1696836551   -0.8034260776
C       -0.0918473042   -1.2622262289    1.0097848416
N        1.5945810001   -0.9754577255   -1.0903287700
N       -0.1961382334   -0.0313069280    0.1305199892
O        1.2609535922    1.3907263413   -0.9774629007
H       -1.2586753484    0.9933947653    1.6445260830
H        0.5000456606    1.3119480360    1.6368477304
H       -0.5475264082    2.0645240544    0.4031419570
H       -2.2877866770   -0.2386445706   -0.1965992422
H       -1.4285963239    0.7100880722   -1.4451441821
H       -1.2509066555   -1.0732120328   -1.3964344182
H       -1.0170854602   -1.3333476417    1.5807177170
H        0.0488781573   -2.1364760611    0.3806249112
H        0.7618811931   -1.1420253558    1.6751326651
H        2.4065458322   -0.8716371330   -1.7002252981
H        2.0202737410    1.5082686588   -1.5784934323
18   
torsion grid (-135,)
C        1.0324234209    0.0908665435   -0.7453564475
C       -0.4289327960    1.2069766139    0.9849323448
C       -1.3889321273   -0.2153534897   -0.7976132361
C       -0.0565887453   -1.2310787875    1.0311859094
N        1.4260598068   -0.9633680977   -1.2958366189
N       -0.2001405603   -0.0204441262    0.1270770940
O        1.4428199315    1.3687469353   -0.7627164641
H       -1.3087097948    1.0126518154    1.5972159505
H        0.4423227497    1.3697755184    1.6168463608
H       -0.5953459878    2.0714196497    0.3470369917
H       -2.2858156753   -0.2952427962   -0.1833827261
H       -1.4602975390    0.6491022261   -1.4579957187
H       -1.2292102554   -1.1250472074   -1.3730967067
H       -0.9733801911   -1.3191268766    1.6134537832
H        0.1026685630   -2.1106494397    0.4131763392
H        0.7981716277   -1.0720426234    1.6880674977
H        2.2435579785   -0.8777862740   -1.9005990265
H        2.2181159304    1.4773821230   -1.3451407907
18   
torsion grid (-120,)
C        1.0242938154    0.0966971978   -0.7580934065
C       -0.4650869854    1.2311867317    0.9425882171
C       -1.4041156048   -0.2629218900   -0.7863905406
C       -0.0202563614   -1.1974385944    1.0450144576
N        1.2813011714   -0.8950317976   -1.4791399207
N       -0.2089598414   -0.0109025674    0.1159767767
O        1.6049137590    1.2899283483   -0.5596445748
H       -1.3660755833    1.0484478647    1.5270266638
H        0.3824706402    1.4093194897    1.6007487925
H       -0.6102405575    2.0823840819    0.2808620884
H       -2.2841777772   -0.3728445078   -0.1530760022
H       -1.5212147698    0.5921489589   -1.4522142717
H       -1.2178385743   -1.1680080223   -1.3595420974
H       -0.9168960818   -1.2893172521    1.6576287697
H        0.1334321691   -2.0873438460    0.4391518669
H        0.8500721696   -1.0095406116    1.6738774235
H        2.1126497153   -0.8236466130   -2.0664113507
H        2.4045150330    1.3836647360   -1.1111083558
18   
torsion grid (-105,)
C        1.0143738679    0.1040457713   -0.7690609741
C       -0.4945810351    1.2541843529    0.8966415794
C       -1.4194528637   -0.3112969564   -0.7722887670
C        0.0130339749   -1.1643779466    1.0588645552
N        1.1588371136   -0.7737715982   -1.6510298324
N       -0.2178600676   -0.0059399353    0.1037251758
O        1.7402496245    1.1595936567   -0.3678412503
H       -1.4157378984    1.0886844217    1.4541226800
H        0.3308632692    1.4449191252    1.5778314387
H       -0.6143074633    2.0900852957    0.2095646960
H       -2.2812357915   -0.4371078505   -0.1175134518
H       -1.5751084387    0.5275680100   -1.4501119205
H       -1.2184350493   -1.2177076579   -1.3367647414
H       -0.8653467185   -1.2565349365    1.6976219493
H        0.1626930470   -2.0676658586    0.4707087575
H        0.8954622228   -0.9474709769    1.6612003117
H        2.0041741686   -0.7067396860   -2.2187684035
H        2.5611643736    1.2363144764   -0.8896472667
18   
torsion grid (-90,)
C        1.0066743605    0.1107727466   -0.7739939039
C       -0.5152808616    1.2757486015    0.8481107800
C       -1.4265117948   -0.3606816241   -0.7576440038
C        0.0360366703   -1.1349065023    1.0792231370
N        1.0518928044   -0.5947060447   -1.8080407531
N       -0.2230906361   -0.0067892281    0.0953076920
O        1.8532615163    0.9778289613   -0.1930070197
H       -1.4403398733    1.1233227737    1.4028233134
H        0.3034376427    1.4948128631    1.5280933887
H       -0.6357635355    2.0859215597    0.1298753280
H       -2.2753773320   -0.4831618023   -0.0857493633
H       -1.6066474555    0.4523746979   -1.4594690187
H       -1.2192811334   -1.2784631553   -1.3001316354
H       -0.8355219303   -1.2273772046    1.7272100483
H        0.1934817208   -2.0519275998    0.5134943807
H        0.9189171982   -0.8885308873    1.6687958994
H        1.9069726191   -0.5218594800   -2.3608489377
H        2.6859263563    1.0444030319   -0.6967947960
18   
torsion grid (-75,)
C        1.0055557708    0.1348929402   -0.7640579796
C       -0.0701742494    0.8159335935    1.3745018853
C       -1.4548800095    0.4236187853   -0.6304507346
C       -0.3419395567   -1.4865695244    0.4699039166
N        0.8283788123    0.3030124960   -1.9926442891
N       -0.2102536955   -0.0157845189    0.1133780343
O        2.0928997304    0.0298065853    0.0211986375
H       -0.9929326244    0.7089807322    1.9435805169
H        0.7780171634    0.4585109932    1.9521717142
H        0.0768653564    1.8572920082    1.0882911290
H       -2.2990866633    0.2777438222    0.0426713312
H       -1.3521765296    1.4729262226   -0.9001024009
H       -1.5645144412   -0.1757586034   -1.5299252620
H       -1.2208096967   -1.6034471077    1.1036901763
H       -0.4614997012   -2.0527431334   -0.4532971763
H        0.5540309729   -1.8016294402    1.0024081585
H        1.6765922964    0.3798170315   -2.5559684437
H        2.9128918763    0.0835053206   -0.5038854845
18   
torsion grid (-60,)
C        1.0037222555    0.1395385448   -0.7628950524
C       -0.0695558403    0.8480166243    1.3375973261
C       -1.4639063942    0.3783525220   -0.6467968877
C       -0.3338460570   -1.4845764149    0.5170969239
N        0.8463819295    0.5676926700   -1.9295797554
N       -0.2145976446   -0.0276670725    0.1053448978
O        2.0727826526   -0.2374795584   -0.0372497617
H       -0.9705279020    0.7304489519    1.9389345184
H        0.8074989159    0.5331260332    1.8982187804
H        0.0342639069    1.8833601564    1.0128309987
H       -2.3047970570    0.2410888180    0.0323105758
H       -1.3748186356    1.4186883067   -0.9500940622
H       -1.5692906956   -0.2502596216   -1.5277535606
H       -1.2343852265   -1.5882114306    1.1216667875
H       -0.4138455209   -2.0910128664   -0.3851233586
H        0.5458788695   -1.7667123700    1.0908330716
H        1.6990558100    0.6651571808   -2.4831116526
H        2.8969514453   -0.1494422710   -0.5507660598
18   
torsion grid (-45,)
C        1.0056130453    0.1430142451   -0.7629134760
C       -0.0720460344    0.8761455674    1.3017328822
C       -1.4680526068    0.3334483410   -0.6666320068
C       -0.3299370391   -1.4794754019    0.5700954826
N        0.8871076404    0.8101614042   -1.8165038754
N       -0.2168134289   -0.0411870066    0.0988369968
O        2.0329335552   -0.4799175126   -0.1576470775
H       -0.9506090105    0.7463506627    1.9334200377
H        0.8303422541    0.6029329984    1.8460998893
H       -0.0107182311    1.9035759428    0.9439606247
H       -2.3110472823    0.1978108364    0.0101745116
H       -1.3914112380    1.3669072547   -0.9929799040
H       -1.5589593152   -0.3185595301   -1.5332321274
H       -1.2498085722   -1.5648631393    1.1474483582
H       -0.3731842781   -2.1292590637   -0.3039999018
H        0.5310086909   -1.7281381113    1.1845006954
H        1.7412212411    0.9306470771   -2.3630093310
H        2.8613254213   -0.3594863617   -0.6578880493
18   
torsion grid (-30,)
C        1.0106502628    0.1484534180   -0.7606438553
C       -0.0863205434    0.9051891700    1.2747493656
C       -1.4646629136    0.2865916313   -0.6875599754
C       -0.3209811167   -1.4707032584    0.6208068127
N        0.9508235234    1.0246460069   -1.6538517412
N       -0.2146135746   -0.0506880176    0.0999576701
O        1.9703277431   -0.6886669862   -0.3315013098
H       -0.9549302008    0.7695800038    1.9190783440
H        0.8274858247    0.6681662144    1.8190308868
H       -0.0514957182    1.9219782444    0.8863328899
H       -2.3135406721    0.1716389519   -0.0143031855
H       -1.3888674586    1.3065240704   -1.0532904435
H       -1.5438939632   -0.4033169654   -1.5265383303
H       -1.2509050982   -1.5410273866    1.1837866565
H       -0.3405066556   -2.1566103251   -0.2253919075
H        0.5287229658   -1.6887724175    1.2617507175
H        1.8010375615    1.1622504512   -2.2018081902
H        2.7986348452   -0.5551246026   -0.8291406750
18   
torsion grid (-15,)
C        1.0188055822    0.1549946551   -0.7528736280
C       -0.1153478950    0.9374036152    1.2594503417
C       -1.4493057498    0.2405069640   -0.7097423061
C       -0.3033614084   -1.4568423505    0.6712630570
N        1.0382181919    1.1886075152   -1.4604042206
N       -0.2072211091   -0.0530331705    0.1107880764
O        1.8788999373   -0.8536138293   -0.5409254549
H       -0.9883484195    0.7980368556    1.8970017986
H        0.7971161585    0.7345981291    1.8204293408
H       -0.0941925864    1.9427794198    0.8434232050
H       -2.3116033683    0.1363903207   -0.0518007527
H       -1.3756490314    1.2500012349   -1.1050049161
H       -1.5030722597   -0.4802807864   -1.5252257815
H       -1.2304965365   -1.5138362959    1.2403630881
H       -0.3210035180   -2.1702959114   -0.1508377718
H        0.5495739461   -1.6506300876    1.3167024009
H        1.8778717885    1.3343804007   -2.0217785691
H        2.6960810893   -0.7290584760   -1.0593641784
18   
torsion grid (0,)
C        1.0284516232    0.1614548010   -0.7397851517
C       -0.1553642079    0.9711050890    1.2512409698
C       -1.4255331137    0.1956948774   -0.7309237244
C       -0.2754270565   -1.4390659315    0.7216936831
N        1.1508395101    1.2939401375   -1.2613197432
N       -0.1965470595   -0.0490898443    0.1271088129
O        1.7540070059   -0.9669866250   -0.7627268235
H       -1.0494999837    0.8357042785    1.8594071549
H        0.7390209478    0.7923036074    1.8481771370
H       -0.1266333832    1.9656734744    0.8124355818
H       -2.3047723902    0.0745389072   -0.0985070237
H       -1.3682243186    1.2040705256   -1.1338889874
H       -1.4355867755   -0.5371922064   -1.5377433096
H       -1.1829931943   -1.4807425743    1.3228034725
H       -0.3190214594   -2.1735160003   -0.0796057212
H        0.5986103678   -1.6164386357    1.3445400111
H        1.9759060630    1.4362519357   -1.8445381136
H        2.5497322361   -0.8575976137   -1.3169044955
18   
torsion grid (15,)
C        1.0362885176    0.1656615549   -0.7255107525
C       -0.1975808281    1.0043133052    1.2428623140
C       -1.4022509102    0.1519438153   -0.7483965426
C       -0.2413073433   -1.4189671877    0.7682864043
N        1.2935393252    1.3445675368   -1.0621936589
N       -0.1865499346   -0.0405082942    0.1429840307
O        1.5941783460   -1.0274325211   -0.9847842206
H       -1.1125133167    0.8677182416    1.8186750661
H        0.6766981054    0.8502006444    1.8748198054
H       -0.1627717834    1.9903656907    0.7876406097
H       -2.2944803935    0.0010208850   -0.1408280622
H       -1.3733460581    1.1618739004   -1.1527683849
H       -1.3638944140   -0.5845622508   -1.5511911881
H       -1.1296043078   -1.4521416407    1.3979817713
H       -0.3031390458   -2.1714800306   -0.0137097260
H        0.6529266525   -1.5754747717    1.3691631616
H        2.1049275397    1.4731975675   -1.6675863396
H        2.3658446606   -0.9301882423   -1.5739805585
18   
torsion grid (30,)
C        1.0402519791    0.1665330559   -0.7144377326
C       -0.2373607966    1.0360096400    1.2255498081
C       -1.3913410493    0.1085953180   -0.7596831705
C       -0.2038672776   -1.3989838553    0.8040885694
N        1.4633863527    1.3370941506   -0.8551721496
N       -0.1822860279   -0.0307700221    0.1503741121
O        1.4125520228   -1.0294640306   -1.2013106493
H       -1.1564429707    0.8811639564    1.7897802950
H        0.6328713195    0.9244369055    1.8708447657
H       -0.2257840950    2.0146992883    0.7545899314
H       -2.2878690810   -0.0492582716   -0.1601877048
H       -1.3858178997    1.1110256324   -1.1852314079
H       -1.3257868876   -0.6442139717   -1.5448697873
H       -1.0822996923   -1.4372635606    1.4471123345
H       -0.2591682688   -2.1680185086    0.0386525760
H        0.7021484638   -1.5213195813    1.3965582771
H        2.2715074254    1.4491424456   -1.4686820994
H        2.1722712945   -0.9393003880   -1.8065122386
18   
torsion grid (45,)
C        1.0418456168    0.1653060537   -0.7062705416
C       -0.2722689522    1.0640389844    1.1990238338
C       -1.3972524259    0.0665594834   -0.7649211478
C       -0.1626661513   -1.3775136666    0.8301997203
N        1.6357328023    1.2668386112   -0.6500950029
N       -0.1851170216   -0.0215786797    0.1480754360
O        1.2330793893   -0.9687237628   -1.4043939737
H       -1.1878677597    0.8916649841    1.7639061827
H        0.5996913706    0.9976909401    1.8469608005
H       -0.2915212259    2.0342849969    0.7104891493
H       -2.2897287376   -0.0761459891   -0.1560007110
H       -1.4068679857    1.0534498900   -1.2267888322
H       -1.3249704995   -0.7128819320   -1.5215146158
H       -1.0413457803   -1.4373912012    1.4713702990
H       -0.1839933580   -2.1616784734    0.0784113665
H        0.7451457901   -1.4500935313    1.4291257376
H        2.4504200282    1.3623777749   -1.2582580817
H        1.9946497118   -0.8860962800   -2.0078558899
18   
torsion grid (60,)
C        1.0411529407    0.1582657438   -0.7059114105
C       -0.2535231574    1.0355345228    1.2213990987
C       -1.4210386337    0.1242074650   -0.7555836347
C       -0.1753507446   -1.3921209299    0.7715900755
N        1.8257621275    1.0918034436   -0.4194096768
N       -0.1972837048   -0.0146247600    0.1327945583
O        1.0289563139   -0.8020650932   -1.6487610499
H       -1.1655345640    0.8577231454    1.7904094937
H        0.6248820985    0.9391842661    1.8549601632
H       -0.2667504497    2.0220157318    0.7642696017
H       -2.3043517209    0.0207368250   -0.1260707125
H       -1.4005953660    1.1117263987   -1.2166379964
H       -1.4007138234   -0.6533263666   -1.5156533073
H       -1.0655913226   -1.4866982772    1.3926872771
H       -0.1730712751   -2.1483218074   -0.0099637972
H        0.7221399239   -1.4720901533    1.3850328630
H        2.6526964324    1.1717933628   -1.0133480106
H        1.8122011193   -0.7400568392   -2.2261725969
18   
torsion grid (75,)
C        1.0440341769    0.1545275420   -0.7050457598
C       -0.2764003089    1.0636837446    1.1883229534
C       -1.4432886683    0.0802446662   -0.7513542158
C       -0.1380972194   -1.3700783506    0.7935443451
N        1.9471403869    0.9030155137   -0.2654566930
N       -0.2054203041   -0.0095079006    0.1212624838
O        0.9111705297   -0.6094137220   -1.8044604924
H       -1.1855374215    0.8860657606    1.7618922984
H        0.6039685982    0.9975314289    1.8214907851
H       -0.3078683111    2.0386719653    0.7059153331
H       -2.3122998104    0.0057711116   -0.0986311080
H       -1.4379421393    1.0429111520   -1.2624398225
H       -1.4375852231   -0.7319204515   -1.4733217290
H       -1.0385862087   -1.4951435470    1.3945735164
H       -0.0848414366   -2.1402555955    0.0257070164
H        0.7478812967   -1.3948086209    1.4272481153
H        2.7859783200    0.9716228421   -0.8436793158
H        1.7116799371   -0.5692308606   -2.3599367726
18   
torsion grid (90,)
C        1.0460370711    0.1545760512   -0.7089096974
C       -0.2026932164    0.9872374483    1.2634722760
C       -1.4637094457    0.2309544336   -0.7175818976
C       -0.2145407542   -1.4114851530    0.6646404152
N        2.0788366721    0.5370815337   -0.1122431446
N       -0.2144472951    0.0026566022    0.1095841087
O        0.7747326408   -0.2095445196   -1.9737615681
H       -1.1023404517    0.8084268613    1.8514150583
H        0.6927040578    0.8274802700    1.8570215875
H       -0.2035693884    1.9980993687    0.8582254855
H       -2.3170185464    0.1573066991   -0.0444446278
H       -1.4167747726    1.2257972137   -1.1589927268
H       -1.5287301138   -0.5234281270   -1.4969057436
H       -1.1250977252   -1.5473046729    1.2481569796
H       -0.1930838498   -2.1138909011   -0.1683904187
H        0.6664261924   -1.5315638845    1.2933242568
H        2.9247304885    0.6001742193   -0.6801759469
H        1.5773247727   -0.1757917360   -2.5271798602
18   
torsion grid (105,)
C        1.0503273458    0.1440730695   -0.7096447655
C       -0.2107255883    1.0200087906    1.2239193439
C       -1.4742086783    0.1750592898   -0.7205799771
C       -0.2014692275   -1.4011871701    0.7038824267
N        2.1174734405    0.2825874519   -0.0683120327
N       -0.2173640156   -0.0054126884    0.1045756774
O        0.7432033726    0.0619890016   -2.0138551620
H       -1.1050108319    0.8577134454    1.8248741298
H        0.6907137200    0.8851287364    1.8153829672
H       -0.2248355306    2.0154245444    0.7808421864
H       -2.3212317871    0.0907907650   -0.0407557280
H       -1.4592090266    1.1597869844   -1.1845064096
H       -1.5233179227   -0.5974991798   -1.4837981073
H       -1.1103036586   -1.5271929600    1.2922705506
H       -0.1751437574   -2.1278114199   -0.1084378402
H        0.6834682360   -1.4940789138    1.3303844632
H        2.9701471314    0.3578193998   -0.6239225010
H        1.5462731143    0.1195825602   -2.5650646858
18   
torsion grid (120,)
C        1.0522969546    0.1278410369   -0.7118854103
C       -0.2137917967    1.0481807346    1.1795287208
C       -1.4771226165    0.1162785778   -0.7280749440
C       -0.1974055730   -1.3930443930    0.7518551086
N        2.1298285325    0.0396905143   -0.0789108403
N       -0.2179951120   -0.0209629452    0.1010745020
O        0.7328866686    0.3300759243   -1.9992772411
H       -1.1116812579    0.9178912042    1.7832693141
H        0.6840990549    0.9269927192    1.7807685704
H       -0.2202670135    2.0257890501    0.6974305583
H       -2.3224602206   -0.0051481562   -0.0517555886
H       -1.5008838108    1.1012474813   -1.1893140558
H       -1.4922551578   -0.6559052187   -1.4940797216
H       -1.0997450654   -1.4914043460    1.3550208775
H       -0.1832315534   -2.1484905141   -0.0338538801
H        0.6958233667   -1.4680872206    1.3675878375
H        2.9851470788    0.1381950136   -0.6265088880
H        1.5355438575    0.4276422443   -2.5456203834
18   
torsion grid (135,)
C        1.0511176362    0.1119445997   -0.7144587867
C       -0.2185118531    1.0738766041    1.1355801053
C       -1.4730593835    0.0567656618   -0.7388798045
C       -0.1945831125   -1.3837039297    0.8023642592
N        2.1236606033   -0.1945964998   -0.1443246751
N       -0.2159494295   -0.0378529293    0.1009940137
O        0.7368062949    0.5919454401   -1.9279219196
H       -1.1269999797    0.9802539913    1.7305120995
H        0.6672684988    0.9639662963    1.7581036277
H       -0.2057583695    2.0319259823    0.6155222916
H       -2.3192379736   -0.1008494991   -0.0711918941
H       -1.5313996877    1.0405464277   -1.1978324176
H       -1.4495664527   -0.7142197846   -1.5069583175
H       -1.0904138867   -1.4490439804    1.4192217458
H       -0.1951999642   -2.1675890088    0.0454438750
H        0.7054011932   -1.4467289002    1.4081668883
H        2.9762065125   -0.0702950434   -0.6912050119
H        1.5390056897    0.7304362789   -2.4658815429
18   
torsion grid (150,)
C        1.0476433450    0.1006736733   -0.7165935379
C       -0.2324466529    1.0995980650    1.0997943243
C       -1.4606928852    0.0016011590   -0.7527612158
C       -0.1874723716   -1.3680972908    0.8511205459
N        2.0919247981   -0.4273572824   -0.2695316699
N       -0.2110033868   -0.0477458373    0.1059469246
O        0.7622978196    0.8422425737   -1.8002405905
H       -1.1443445830    1.0197868693    1.6915779290
H        0.6470599552    1.0171637793    1.7367075665
H       -0.2225043646    2.0393167483    0.5479419473
H       -2.3125558411   -0.1670210480   -0.0951458699
H       -1.5370407629    0.9742075665   -1.2310449983
H       -1.4032223815   -0.7845203012   -1.5045687803
H       -1.0882237886   -1.4125442269    1.4624783110
H       -0.1772763811   -2.1775223600    0.1226212378
H        0.7066304883   -1.4120734742    1.4664301543
H        2.9364662508   -0.2874237818   -0.8255947323
H        1.5635470783    1.0064968753   -2.3318830099
18   
torsion grid (165,)
C        1.0428415694    0.0940269113   -0.7182535694
C       -0.2585963462    1.1252354930    1.0759334177
C       -1.4399392739   -0.0459644242   -0.7692242449
C       -0.1729097519   -1.3449359729    0.8971279417
N        2.0190830724   -0.6420417321   -0.4455980028
N       -0.2051046546   -0.0486189859    0.1145318765
O        0.8237442793    1.0638111759   -1.6244949383
H       -1.1638186061    1.0304219377    1.6754253586
H        0.6244405965    1.0865062048    1.7132095321
H       -0.2793805738    2.0496238363    0.5009861625
H       -2.3046717030   -0.2061896476   -0.1263618047
H       -1.5176000722    0.9089707979   -1.2818572332
H       -1.3520838744   -0.8579776385   -1.4908822434
H       -1.0877279150   -1.3864968404    1.4874192115
H       -0.1257683256   -2.1767675955    0.1971034669
H        0.7051278897   -1.3551995734    1.5370586367
H        2.8530338153   -0.5020057847   -1.0179736754
H        1.6181162101    1.2243835451   -2.1668953563
18   
torsion grid (180,)
C        1.0391093658    0.0902401278   -0.7211718749
C       -0.2969411381    1.1444363133    1.0591011192
C       -1.4165149434   -0.0872145740   -0.7883200157
C       -0.1514952450   -1.3188116958    0.9392832013
N        1.9080316311   -0.8090636459   -0.6474511217
N       -0.2011119741   -0.0461776830    0.1211769636
O        0.9305422228    1.2360074724   -1.4190085545
H       -1.1849756627    1.0125647188    1.6765237165
H        0.5965723945    1.1628061818    1.6831720177
H       -0.3721208570    2.0565526091    0.4716900263
H       -2.2991826921   -0.2095042014   -0.1613009708
H       -1.4734948605    0.8419171395   -1.3505986328
H       -1.3125998288   -0.9374769992   -1.4624635033
H       -1.0729470084   -1.3623012590    1.5190753595
H       -0.0736960884   -2.1707700234    0.2682264168
H        0.7174383745   -1.2887164745    1.5922684437
H        2.7324828983   -0.6760258903   -1.2352690982
H        1.7096897474    1.3783195909   -1.9876789568
