12   
torsion grid (-165,)
C        0.1248048752   -0.1068571181    0.6280176911
C        0.6072966652    0.7423576491   -1.3141043867
C       -0.7684865852    0.0212066556   -1.3985428407
N        1.0348801114    0.5857019548    0.0901278176
N        0.1648599588   -0.5366191419    2.0524613605
O       -0.6185851627   -1.4293734419    2.3741704083
O        0.9766904516    0.0293987075    2.7772931752
O       -0.9527471931   -0.5336947547   -0.0538542383
H        1.3627223779    0.2952616761   -1.9669288466
H        0.5449254377    1.8071085209   -1.5551396425
H       -1.6080795576    0.6922956600   -1.5896104244
H       -0.7944367843   -0.8131139905   -2.1011419997
12   
torsion grid (-150,)
C        0.1234359279   -0.0996362860    0.6306434205
C        0.6207258056    0.7155516558   -1.3222666818
C       -0.7832177620    0.0494485906   -1.3885415585
N        1.0509540910    0.5604481893    0.0824642391
N        0.1649667767   -0.5377561330    2.0497941508
O       -0.4320320583   -1.5813597283    2.3124824144
O        0.7987029552    0.1672293915    2.8285474066
O       -0.9719157048   -0.4975298401   -0.0404944196
H        1.3526317753    0.2286216737   -1.9733328319
H        0.5988833376    1.7783297372   -1.5781726754
H       -1.5974649842    0.7539808806   -1.5688459176
H       -0.8518255651   -0.7836557545   -2.0895294729
12   
torsion grid (-135,)
C        0.1245656712   -0.0975596533    0.6312752291
C        0.6338239310    0.6871882884   -1.3300268883
C       -0.7965133340    0.0785922974   -1.3784881133
N        1.0695254781    0.5276694883    0.0738048280
N        0.1643221781   -0.5386379278    2.0463559092
O       -0.2159274700   -1.6887535986    2.2629309618
O        0.5852862367    0.2698633565    2.8677954291
O       -0.9904549629   -0.4615230924   -0.0272745716
H        1.3388522275    0.1637764587   -1.9823161194
H        0.6519860624    1.7473787244   -1.5960885353
H       -1.5834074881    0.8163276762   -1.5469169600
H       -0.9082139351   -0.7506496409   -2.0783030955
12   
torsion grid (-120,)
C        0.1304343351   -0.0967380286    0.6313866061
C        0.6445374838    0.6600251944   -1.3393358337
C       -0.8087794269    0.1075549608   -1.3674454824
N        1.0918879093    0.4884198117    0.0609370899
N        0.1653324828   -0.5406339356    2.0436826813
O        0.0160333837   -1.7476429316    2.2284653252
O        0.3525942686    0.3239179489    2.8944376187
O       -1.0075940430   -0.4187951775   -0.0100112044
H        1.3193264659    0.1059366035   -1.9980638650
H        0.6993592028    1.7174810843   -1.6106960962
H       -1.5684309274    0.8745431336   -1.5295343391
H       -0.9608565398   -0.7203962870   -2.0610744268
12   
torsion grid (-105,)
C        0.1422076276   -0.1098228450    0.6264252520
C        0.6536289635    0.6369962301   -1.3473315311
C       -0.8185267209    0.1343506971   -1.3571750963
N        1.1300523529    0.4040107775    0.0353766823
N        0.1678884301   -0.5448764121    2.0406808438
O        0.2274506472   -1.7584460375    2.2281212447
O        0.1286680542    0.3393055513    2.8915858759
O       -1.0357306995   -0.3393905126    0.0179975561
H        1.2906441550    0.0865013265   -2.0447013512
H        0.7364343523    1.7021093715   -1.5798846197
H       -1.5544578474    0.9169345801   -1.5479720455
H       -0.9944147200   -0.7140003501   -2.0203747375
12   
torsion grid (-90,)
C        0.1523185254   -0.1301562133    0.6199809123
C        0.6630510629    0.6098696461   -1.3561832287
C       -0.8280042468    0.1666757005   -1.3466066465
N        1.1542275282    0.3363078239    0.0143138134
N        0.1691550873   -0.5482405894    2.0392024169
O        0.4659469253   -1.7201471575    2.2581713447
O       -0.1242106499    0.3137373518    2.8640155441
O       -1.0469339237   -0.2959968034    0.0325282256
H        1.2646193452    0.0455743530   -2.0736115919
H        0.7838212977    1.6744940633   -1.5738577392
H       -1.5350529914    0.9770732631   -1.5296878141
H       -1.0450933654   -0.6755190613   -2.0055171629
12   
torsion grid (-75,)
C        0.1548069487   -0.1515014011    0.6140489908
C        0.6710439974    0.5823049981   -1.3633442123
C       -0.8363939588    0.1993784985   -1.3382349226
N        1.1696720010    0.2687946732   -0.0045817750
N        0.1693879983   -0.5516393652    2.0386755471
O        0.6908824977   -1.6310374381    2.3039760678
O       -0.3521457671    0.2377825458    2.8236452144
O       -1.0592853873   -0.2537081397    0.0430371472
H        1.2396714362    0.0055714635   -2.0975749559
H        0.8319572319    1.6444303981   -1.5670944933
H       -1.5126959997    1.0369098857   -1.5150210721
H       -1.0930564035   -0.6336137419   -1.9947834624
12   
torsion grid (-60,)
C        0.1514819831   -0.1684756466    0.6099872734
C        0.6788188440    0.5541249988   -1.3695451283
C       -0.8428095270    0.2331236228   -1.3313913132
N        1.1771642876    0.2112420905   -0.0189713412
N        0.1673173398   -0.5562615930    2.0390812124
O        0.8917674267   -1.4962406265    2.3522792203
O       -0.5531962986    0.1087036960    2.7819034459
O       -1.0705359965   -0.2152875164    0.0493232356
H        1.2170872840   -0.0399855481   -2.1129315020
H        0.8821128673    1.6099779798   -1.5683643893
H       -1.4858676417    1.0982898041   -1.4994024114
H       -1.1394959739   -0.5855388845   -1.9892202283
12   
torsion grid (-45,)
C        0.1466375289   -0.1720563043    0.6093872602
C        0.6838171619    0.5252216370   -1.3775158506
C       -0.8487908673    0.2642363645   -1.3243572779
N        1.1807254313    0.1635627258   -0.0327808192
N        0.1678722391   -0.5590325107    2.0406855010
O        1.0558836059   -1.3287448568    2.3938770727
O       -0.7094269302   -0.0624159095    2.7462499794
O       -1.0810047247   -0.1661592493    0.0599687232
H        1.1923463481   -0.0894155018   -2.1252941192
H        0.9278545340    1.5719979547   -1.5792070029
H       -1.4593583650    1.1524813998   -1.4933377140
H       -1.1827113670   -0.5460033727   -1.9749276789
12   
torsion grid (-30,)
C        0.1441115544   -0.1723353775    0.6095934611
C        0.6884646153    0.4956466400   -1.3867000236
C       -0.8527208493    0.2966203127   -1.3166853302
N        1.1832283758    0.1243374425   -0.0450831117
N        0.1671492912   -0.5629004509    2.0428841591
O        1.1774516863   -1.1305464789    2.4455600757
O       -0.8311380962   -0.2704411527    2.7006083603
O       -1.0862870848   -0.1245837739    0.0691378472
H        1.1658583388   -0.1435954153   -2.1345542367
H        0.9731154711    1.5301843107   -1.5985974743
H       -1.4282633890    1.2093215080   -1.4789263497
H       -1.2271253189   -0.4980351878   -1.9644893035
12   
torsion grid (-15,)
C        0.1411452502   -0.1655209132    0.6112836371
C        0.6918038507    0.4658274404   -1.3955032840
C       -0.8554688995    0.3296176160   -1.3087037140
N        1.1838766710    0.0924690680   -0.0546777172
N        0.1671069971   -0.5663063306    2.0444752065
O        1.2510668937   -0.9157209585    2.5001924563
O       -0.9040658588   -0.5056771683    2.6472737250
O       -1.0908912490   -0.0795146963    0.0796594443
H        1.1367877009   -0.2015878941   -2.1388806770
H        1.0166288203    1.4849475909   -1.6239787260
H       -1.3948500340    1.2648932123   -1.4673317300
H       -1.2692955478   -0.4497545897   -1.9510605473
12   
torsion grid (0,)
C        0.1410507820   -0.1587525107    0.6131650762
C        0.6934942894    0.4354452267   -1.4047339536
C       -0.8568945715    0.3626444696   -1.2994094647
N        1.1850748667    0.0626933118   -0.0640444918
N        0.1672044490   -0.5688445364    2.0448283415
O        1.2716405509   -0.6893114585    2.5647608503
O       -0.9257773860   -0.7498826580    2.5806855055
O       -1.0921428120   -0.0402913535    0.0903672000
H        1.1030399788   -0.2606085485   -2.1423412617
H        1.0565945103    1.4368867407   -1.6529484716
H       -1.3585118794    1.3202873042   -1.4489913881
H       -1.3109281833   -0.3965936104   -1.9385898682
12   
torsion grid (15,)
C        0.1416688968   -0.1522344737    0.6153921629
C        0.6934396028    0.4044647970   -1.4135584563
C       -0.8571563296    0.3960068809   -1.2894358146
N        1.1858254520    0.0335001344   -0.0720953505
N        0.1669076537   -0.5702712039    2.0436311126
O        1.2383748291   -0.4622544232    2.6310147381
O       -0.8917277926   -0.9938429915    2.5066928881
O       -1.0920466978   -0.0021303927    0.1022855990
H        1.0655046805   -0.3199617146   -2.1436726501
H        1.0933026425    1.3861596246   -1.6827725936
H       -1.3192320076    1.3748567239   -1.4294027423
H       -1.3510163349   -0.3406205844   -1.9253308194
12   
torsion grid (30,)
C        0.1431062932   -0.1446819898    0.6174319727
C        0.6917775313    0.3743551925   -1.4213348456
C       -0.8563722794    0.4282089268   -1.2789951302
N        1.1863688174    0.0014669036   -0.0801191434
N        0.1675210882   -0.5722315150    2.0401096745
O        1.1546225015   -0.2557034794    2.6962531490
O       -0.8059170692   -1.2169954209    2.4292045878
O       -1.0909317797    0.0411483683    0.1165576774
H        1.0250616738   -0.3740847422   -2.1458425764
H        1.1257621913    1.3360857281   -1.7087164097
H       -1.2799554232    1.4249372263   -1.4145496327
H       -1.3871989503   -0.2888328214   -1.9072512497
12   
torsion grid (45,)
C        0.1459356373   -0.1448082199    0.6172048053
C        0.6887396865    0.3441913716   -1.4294514681
C       -0.8541419509    0.4599353254   -1.2682112951
N        1.1861111613   -0.0380667788   -0.0906032212
N        0.1683081244   -0.5743235400    2.0363081934
O        1.0223654186   -0.0661070343    2.7560783579
O       -0.6735424960   -1.4116463100    2.3592326420
O       -1.0875414801    0.0810457158    0.1308883588
H        0.9821323817   -0.4222866544   -2.1522083681
H        1.1549996330    1.2865353253   -1.7297347978
H       -1.2380176385    1.4734912784   -1.3968452820
H       -1.4215038825   -0.2342881023   -1.8899098513
12   
torsion grid (60,)
C        0.1509774940   -0.1479397392    0.6158821174
C        0.6853214305    0.3152888912   -1.4380713525
C       -0.8498397994    0.4902681369   -1.2576156356
N        1.1850752086   -0.0861838405   -0.1042696061
N        0.1678610727   -0.5758596973    2.0334728671
O        0.8498444009    0.0895427231    2.8071777963
O       -0.5088258294   -1.5676244659    2.3010608347
O       -1.0795816132    0.1291322574    0.1481239133
H        0.9385784572   -0.4622414761   -2.1639882616
H        1.1823952208    1.2395116190   -1.7448072111
H       -1.1972135482    1.5165934978   -1.3876961434
H       -1.4507478995   -0.1868155295   -1.8665212448
12   
torsion grid (75,)
C        0.1551839436   -0.1643192628    0.6103739063
C        0.6790444250    0.2876651461   -1.4478663310
C       -0.8452097683    0.5228848671   -1.2454307811
N        1.1807067304   -0.1423590740   -0.1225118953
N        0.1701622767   -0.5794298517    2.0307085017
O        0.6413921376    0.2197678845    2.8348637279
O       -0.3005465252   -1.6894440693    2.2708449245
O       -1.0704354749    0.1647646026    0.1630794615
H        0.8901306374   -0.4951454335   -2.1814531723
H        1.2074716241    1.1936254051   -1.7562035682
H       -1.1530400296    1.5628856288   -1.3655439084
H       -1.4810153819   -0.1272234659   -1.8481127919
12   
torsion grid (90,)
C        0.1538538138   -0.1856252237    0.6040710150
C        0.6725416897    0.2601191539   -1.4565105187
C       -0.8385916295    0.5554427364   -1.2350861618
N        1.1689245489   -0.2101569743   -0.1424354523
N        0.1701201322   -0.5825955220    2.0293491701
O        0.4116163618    0.3083679738    2.8400657455
O       -0.0685005454   -1.7638983338    2.2680336587
O       -1.0603607239    0.2066056292    0.1766998605
H        0.8434617365   -0.5195511012   -2.2036909760
H        1.2347318956    1.1482444685   -1.7568555572
H       -1.1073601239    1.6065128461   -1.3516251149
H       -1.5065925609   -0.0697932759   -1.8292675951
12   
torsion grid (105,)
C        0.1448427237   -0.2068109017    0.5986069735
C        0.6646114431    0.2319622023   -1.4635109496
C       -0.8308926222    0.5889193792   -1.2267861102
N        1.1484655697   -0.2797425142   -0.1607508574
N        0.1690408902   -0.5862834484    2.0288033516
O        0.1709144962    0.3449575538    2.8314360368
O        0.1859367167   -1.7876171084    2.2815235298
O       -1.0515826307    0.2513886433    0.1874545012
H        0.7974026006   -0.5422362643   -2.2240213491
H        1.2631986737    1.0994960447   -1.7537646829
H       -1.0587998958    1.6495941899   -1.3429131006
H       -1.5292933703   -0.0099553994   -1.8133292694
12   
torsion grid (120,)
C        0.1338230636   -0.2211265487    0.5957092409
C        0.6567815338    0.2077119794   -1.4690834027
C       -0.8226301014    0.6175950681   -1.2211407283
N        1.1150580578   -0.3663034269   -0.1842383341
N        0.1667498712   -0.5915730700    2.0290717610
O       -0.0401111357    0.3250824828    2.8229592476
O        0.4092673091   -1.7648538101    2.2953396652
O       -1.0279956563    0.3343391433    0.2060218394
H        0.7605828493   -0.5411565500   -2.2585613768
H        1.2934378635    1.0595858772   -1.7245388904
H       -1.0259462272    1.6784140178   -1.3730522837
H       -1.5451728328    0.0159572140   -1.7757386645
12   
torsion grid (135,)
C        0.1279208515   -0.2206597836    0.5959683580
C        0.6475797159    0.1792480790   -1.4757276964
C       -0.8119898617    0.6485821595   -1.2149853930
N        1.0948771636   -0.4074671396   -0.1944354467
N        0.1658817532   -0.5947302025    2.0302661843
O       -0.2683066760    0.2453478141    2.8176741411
O        0.6385371255   -1.6933319068    2.3047076879
O       -1.0132578296    0.3805328649    0.2142616734
H        0.7149782787   -0.5765784039   -2.2626882637
H        1.3160649959    1.0032478842   -1.7415456921
H       -0.9751537217    1.7157886321   -1.3708948734
H       -1.5632872005    0.0736923795   -1.7598526056
12   
torsion grid (150,)
C        0.1266772487   -0.2186191351    0.5965146219
C        0.6360283084    0.1504611757   -1.4843573840
C       -0.8003175248    0.6792491442   -1.2078876205
N        1.0780993891   -0.4407286831   -0.2047127012
N        0.1666198260   -0.5972642857    2.0327228978
O       -0.4780353245    0.1173460253    2.7997123573
O        0.8459820520   -1.5749465746    2.3288424424
O       -0.9967536427    0.4189294371    0.2223815930
H        0.6637580418   -0.6149499815   -2.2646384529
H        1.3331968358    0.9442695687   -1.7680806997
H       -0.9206393126    1.7525118111   -1.3621060837
H       -1.5807713025    0.1374138748   -1.7456428968
12   
torsion grid (165,)
C        0.1289169304   -0.2110095759    0.5983181969
C        0.6246364362    0.1240422538   -1.4921923626
C       -0.7873196612    0.7077975446   -1.2014302890
N        1.0606044753   -0.4733970814   -0.2144599730
N        0.1656574400   -0.5997964622    2.0345237593
O       -0.6515383200   -0.0470826564    2.7701142804
O        1.0087558497   -1.4290834134    2.3604603198
O       -0.9739428933    0.4660658136    0.2328383192
H        0.6148957415   -0.6470155134   -2.2673211074
H        1.3480102855    0.8889226006   -1.7899839028
H       -0.8703294644    1.7833839277   -1.3639912895
H       -1.5945022248    0.1908449393   -1.7241278775
12   
torsion grid (180,)
C        0.1301967919   -0.1123977380    0.6263533666
C        0.5932826847    0.7675279362   -1.3078196812
C       -0.7529765696   -0.0052023710   -1.4065883608
N        1.0146658192    0.6207737461    0.0991919871
N        0.1635409985   -0.5355935376    2.0542060564
O       -0.7639637776   -1.2502294469    2.4329395122
O        1.1087219884   -0.1369057381    2.7267279460
O       -0.9236499053   -0.5771888578   -0.0675563924
H        1.3713323062    0.3519771133   -1.9551703425
H        0.4925236640    1.8298216153   -1.5462656980
H       -1.6165255321    0.6350193982   -1.5971336278
H       -0.7433038735   -0.8339297429   -2.1161366919
