23   
torsion grid (-165,)
C       -1.4984088638   -1.1714285969    4.9455890795
C       -2.1969171388   -2.0286096915    2.7206715240
C       -2.6044717149   -0.5692744101    2.7672189978
C       -1.3554644620   -1.0239458391    3.5018920212
C        0.0920069674    1.3342482868    1.8490369006
C        2.0088492440   -0.2456645602    2.2056718043
C        0.1018512589   -0.9561303953    0.7494652723
C        0.4941510537   -0.1415527131    1.9893599973
N       -1.6547818448   -1.3139854148    6.0897704803
O       -0.0225252225   -0.6797504322    3.2411926966
H       -2.7673811268   -2.7495062618    3.2971505754
H       -1.7850216702   -2.4094803221    1.7955733791
H       -2.4671125486    0.0100929262    1.8633676928
H       -3.4619636088   -0.2758413460    3.3643794411
H       -0.9816270838    1.4635090100    1.6972595973
H        0.3763828830    1.8840426810    2.7505378377
H        0.6053413443    1.7842391354    0.9928565489
H        2.3061192559   -1.2922963563    2.3165589217
H        2.2973811094    0.2905267370    3.1135863248
H        2.5471556608    0.1858323672    1.3564395013
H        0.3201169339   -2.0176489604    0.8963473740
H       -0.9499878421   -0.8415492173    0.4766088589
H        0.6931316242   -0.6074695964   -0.1029881529
23   
torsion grid (-150,)
C       -1.5132263093   -1.0271643829    4.9332501592
C       -2.2126330264   -2.0783626224    2.7779828685
C       -2.5747152476   -0.6118841420    2.6945197503
C       -1.3481748165   -1.0404434585    3.4848458655
C        0.0731187440    1.3083560278    1.9538258087
C        2.0156611039   -0.2612533702    2.1747850203
C        0.1039758552   -0.9125154258    0.6987845772
C        0.4970531785   -0.1668581749    1.9827953751
N       -1.6822709592   -1.0360506114    6.0846685854
O        0.0031190225   -0.8213040893    3.1866885918
H       -2.8164232125   -2.7394647944    3.3908615650
H       -1.7746907817   -2.5346526306    1.8977755228
H       -2.4233955984   -0.1124891965    1.7474467053
H       -3.4222220755   -0.2443245535    3.2642308186
H       -1.0032674867    1.4375474454    1.8273120793
H        0.3665233241    1.7971791939    2.8872245448
H        0.5693607306    1.8229059665    1.1244766516
H        2.3306543067   -1.3079289597    2.2115284006
H        2.3075098816    0.2179007493    3.1130300709
H        2.5363118537    0.2339347574    1.3497097965
H        0.3553119840   -1.9737391184    0.7834284560
H       -0.9565336894   -0.8214511789    0.4534086462
H        0.6657774267   -0.4995804006   -0.1450331858
23   
torsion grid (-135,)
C       -3.0858411658    0.2382923705    1.8687682895
C       -2.2219210737   -0.5703764347    4.0787528865
C       -2.0566556869   -1.7027043848    3.0949470027
C       -1.9371931827   -0.2637699549    2.6130466766
C        0.3492330597   -1.3013425618    0.8676779521
C        1.3189570048    0.9527351401    1.3821981190
C        1.1638252577   -0.7350486739    3.2232489623
C        0.4967910436   -0.2148481910    1.9408440415
N       -4.0225303741    0.6282511552    1.2981703489
O       -0.7809886954    0.4250834444    2.2278275689
H       -3.2076708981   -0.3439648950    4.4713914178
H       -1.3926353195   -0.3709026354    4.7495068795
H       -1.1591211459   -2.3015287955    3.1580454846
H       -2.9368988849   -2.2486778033    2.7709104189
H       -0.2045654303   -2.1740173960    1.2183244924
H       -0.1704465073   -0.8949988816   -0.0049446060
H        1.3393026982   -1.6428327151    0.5488955708
H        1.3829353200    1.7582871070    2.1191614594
H        0.8470249546    1.3504045906    0.4797426017
H        2.3322733599    0.6229250111    1.1343125625
H        1.2001824620    0.0588817583    3.9749969191
H        0.6516092708   -1.5970318880    3.6560525926
H        2.1911581419   -1.0444583361    3.0056690324
23   
torsion grid (-120,)
C       -2.9903292882    0.1620989799    1.7654992085
C       -2.3340457937   -0.5301275350    4.0839504401
C       -2.0284593610   -1.6966575731    3.1811529023
C       -1.9104792551   -0.2789790962    2.6407298469
C        0.2672498190   -1.2513455447    0.8684439259
C        1.3097278615    0.9682134260    1.4007003458
C        1.2541676202   -0.7948568238    3.1785794404
C        0.5113819455   -0.2112174363    1.9679228415
N       -3.8663837284    0.5117098794    1.0829479275
O       -0.7320148474    0.4294881315    2.3910033524
H       -3.3625335694   -0.3263719506    4.3625076731
H       -1.5828899072   -0.2589683507    4.8188173979
H       -1.1173879883   -2.2502138235    3.3599021400
H       -2.8501950506   -2.2927271139    2.7973140836
H       -0.2722418413   -2.1292890422    1.2291841756
H       -0.3069300239   -0.8079012305    0.0495069610
H        1.2264769143   -1.5930901794    0.4669193792
H        1.4344320130    1.7428593263    2.1628151800
H        0.7831614619    1.4072423619    0.5490142847
H        2.3000551666    0.6388137884    1.0720389933
H        1.3401334830   -0.0379634818    3.9636542579
H        0.7597671285   -1.6729971547    3.5996109599
H        2.2641614495   -1.0993625270    2.8853309563
23   
torsion grid (-105,)
C       -2.8691863590    0.0665648788    1.6686778064
C       -2.4405680766   -0.4738479935    4.0796698390
C       -2.0105686887   -1.6841154401    3.2948620605
C       -1.8780724632   -0.3018117244    2.6735075610
C        0.1950367949   -1.1962214050    0.8610235121
C        1.2921467536    0.9911084039    1.4303933077
C        1.3313402439   -0.8670825944    3.1145343426
C        0.5221437688   -0.2108740338    1.9876350902
N       -3.6683559298    0.3670818397    0.8768829940
O       -0.6856367719    0.4089469826    2.5414863951
H       -3.4984274565   -0.2893223177    4.2329239902
H       -1.7791492163   -0.1233528960    4.8651178615
H       -1.0993008281   -2.1829094086    3.5959939935
H       -2.7709008080   -2.3365726726    2.8774858723
H       -0.3335065090   -2.0816739997    1.2216271986
H       -0.4190389134   -0.7158242342    0.0936667925
H        1.1244098400   -1.5329868164    0.3911399994
H        1.4764924643    1.7231557162    2.2221504478
H        0.7132821539    1.4787076754    0.6412586306
H        2.2549025137    0.6743670344    1.0177072571
H        1.4572833098   -0.1639085165    3.9429062124
H        0.8580402617   -1.7736385539    3.4985266193
H        2.3244581245   -1.1474328942    2.7483688900
23   
torsion grid (-90,)
C       -2.7492780799   -0.1201255237    1.5862891194
C       -2.5241546575   -0.3730068925    4.0742184294
C       -1.9927235668   -1.6483587870    3.4747212683
C       -1.8484919055   -0.3373787095    2.7131459732
C        0.1443354219   -1.1066539412    0.7989678706
C        1.2898655823    1.0232715412    1.4937870093
C        1.3580079540   -0.9726800948    3.0185134889
C        0.5235858228   -0.2099318880    1.9806062714
N       -3.4772283408    0.0598534260    0.6954860768
O       -0.6544693191    0.3746046513    2.6371895639
H       -3.5964143400   -0.2139898149    4.1116194935
H       -1.9481977559    0.0901129870    4.8683734330
H       -1.0891844499   -2.0633054309    3.9022526833
H       -2.6956576029   -2.3766832709    3.0829145906
H       -0.4249656289   -1.9844813800    1.1165449485
H       -0.4457164604   -0.5597846710    0.0589108852
H        1.0568459229   -1.4631954814    0.3109392949
H        1.5183923561    1.6844657023    2.3349917224
H        0.6885022027    1.5823785528    0.7716981950
H        2.2300070432    0.7292461911    1.0170536783
H        1.5039438414   -0.3568202604    3.9107333097
H        0.8880026485   -1.9135290319    3.3148566003
H        2.3418175203   -1.2156508433    2.6037327678
23   
torsion grid (-75,)
C       -2.6363718354   -0.9215736215    1.6366232466
C       -2.6146245590   -0.0676364246    3.9903671459
C       -1.8326372256   -1.3541486572    4.0103768599
C       -1.8218190436   -0.4783941716    2.7612014031
C        0.1924018283   -0.7329683263    0.4445267922
C        1.3960377571    1.0118692641    1.8004247615
C        1.0992806416   -1.3076123195    2.7270472576
C        0.4767444323   -0.2101980288    1.8574527782
N       -3.3179369346   -1.2777947583    0.7622390521
O       -0.7390656155    0.3460553234    2.4636715588
H       -3.6967299802   -0.1070112698    3.9297683136
H       -2.2001656680    0.7829054432    4.5212821101
H       -0.9146945628   -1.3689720220    4.5846212616
H       -2.3685614279   -2.2968957252    3.9624889744
H       -0.4084611785   -1.6454215844    0.4545785944
H       -0.3373439136    0.0199941142   -0.1453341711
H        1.1375352972   -0.9639277447   -0.0577436579
H        1.5688423866    1.4069479519    2.8059284415
H        0.9414955424    1.8005667317    1.1942471658
H        2.3606074075    0.7441502995    1.3591300807
H        1.2790345105   -0.9473271176    3.7446329343
H        0.4710969732   -2.2008451826    2.7714711888
H        2.0621593764   -1.6034051438    2.2985445817
23   
torsion grid (-60,)
C       -2.3889130215   -1.4646089129    1.8798433823
C       -2.7170926987    0.0684425764    3.8576029408
C       -1.7460221690   -1.0014170203    4.2883653130
C       -1.7849199776   -0.5450851817    2.8330387126
C        0.2099013030   -0.4366246523    0.2715380722
C        1.4528774854    0.8927475245    2.0099641106
C        0.8922286517   -1.5204542053    2.4535405284
C        0.4351290297   -0.2256173516    1.7743232634
N       -2.8798453786   -2.2208113032    1.1426740563
O       -0.7963999939    0.3179014159    2.3662801413
H       -3.7719077552   -0.1755375187    3.7923040213
H       -2.4848027197    1.0977505080    4.1099575873
H       -0.8682057639   -0.6873615653    4.8421598711
H       -2.1247948219   -1.9903690790    4.5264680480
H       -0.5060653474   -1.2371100935    0.0748699308
H       -0.1677379716    0.4840596802   -0.1825238447
H        1.1543934053   -0.7005458824   -0.2159702247
H        1.6048796292    1.0543755434    3.0814633253
H        1.0967361835    1.8279391082    1.5682945079
H        2.4146053590    0.6380478095    1.5542135790
H        1.0660364774   -1.3714318025    3.5228200173
H        0.1717518534   -2.3324045746    2.3248477660
H        1.8349924501   -1.8435279928    2.0014715681
23   
torsion grid (-45,)
C       -2.2617063511   -1.5530911115    1.9541067509
C       -2.7699151431    0.1138486833    3.7876638065
C       -1.8274036559   -0.9211499055    4.3524397659
C       -1.7620011687   -0.5431872288    2.8724573004
C        0.1528594195   -0.3716570040    0.2773918767
C        1.5070119290    0.8417037107    2.0120315763
C        0.9100845771   -1.5725828657    2.3849843371
C        0.4517008541   -0.2423387393    1.7762478806
N       -2.6829585465   -2.3917595099    1.2644268845
O       -0.7239076685    0.2977177254    2.4686979105
H       -3.8156766339   -0.1443883209    3.6602404463
H       -2.5641486486    1.1581529502    3.9985020204
H       -0.9893917030   -0.5683144161    4.9441315943
H       -2.2204229436   -1.8967884139    4.6203271629
H       -0.5811655976   -1.1510691652    0.0671939652
H       -0.2273446694    0.5783202425   -0.1095771414
H        1.0715828216   -0.6213995170   -0.2637940324
H        1.7165227612    0.9474651543    3.0806635780
H        1.1517492225    1.8047265712    1.6339156243
H        2.4377957409    0.5880629198    1.4957945008
H        1.0833865418   -1.4697530256    3.4603360604
H        0.1885068744   -2.3766348665    2.2215610499
H        1.8516661962   -1.8775268375    1.9178037559
23   
torsion grid (-30,)
C       -2.1558747600   -1.6413519461    2.0385222245
C       -2.8139915918    0.1440268774    3.7023446879
C       -1.9341901865   -0.8584343919    4.4108914478
C       -1.7332954583   -0.5705498286    2.9224039397
C        0.0902707015   -0.3106413618    0.3055038308
C        1.5465211505    0.8134328792    2.0140974904
C        0.9749323873   -1.6163346941    2.3060996503
C        0.4779089471   -0.2604817961    1.7888459098
N       -2.5370996211   -2.5285945139    1.3871076320
O       -0.6403801635    0.2387377144    2.5904939098
H       -3.8470752853   -0.1177937697    3.5000009583
H       -2.6175652537    1.1984968040    3.8666992386
H       -1.1451019265   -0.4744652740    5.0488639563
H       -2.3598695375   -1.8135879121    4.7015669788
H       -0.6562018566   -1.0773775558    0.0940585672
H       -0.3056888423    0.6595776369   -0.0091157669
H        0.9757980862   -0.5329420558   -0.2992059007
H        1.8214465036    0.8648556981    3.0717063220
H        1.1697328867    1.7935764112    1.7076651641
H        2.4432209467    0.5872615413    1.4295135861
H        1.1922050014   -1.5597495089    3.3772755525
H        0.2534778857   -2.4187056671    2.1371105562
H        1.8976441947   -1.8905982566    1.7850967383
23   
torsion grid (-15,)
C       -2.0663747019   -1.7339182133    2.1361784034
C       -2.8407097945    0.1694741562    3.5968303918
C       -2.0468069993   -0.7856391818    4.4570559704
C       -1.6991738732   -0.6141957752    2.9807181160
C        0.0233210474   -0.2533319856    0.3542497141
C        1.5772788272    0.7892415846    2.0274581109
C        1.0536423412   -1.6600422025    2.2149944679
C        0.5067149658   -0.2848028328    1.8100228552
N       -2.4211208813   -2.6523277961    1.5134244228
O       -0.5527194415    0.1508918225    2.7173962836
H       -3.8551973552   -0.0968243609    3.3193015295
H       -2.6415698046    1.2310408603    3.7014630401
H       -1.3139099805   -0.3627827190    5.1362022178
H       -2.5129645491   -1.7124927002    4.7755997521
H       -0.7261402580   -1.0177928089    0.1443516671
H       -0.4021759562    0.7280459057    0.1235656676
H        0.8699534444   -0.4268942708   -0.3181873579
H        1.9143300456    0.7881809919    3.0681247285
H        1.1749530059    1.7796654880    1.7958113370
H        2.4392980803    0.6028573660    1.3801585044
H        1.3329091064   -1.6580450203    3.2732581546
H        0.3353826916   -2.4641281568    2.0435503865
H        1.9479042478   -1.8878231208    1.6260183104
23   
torsion grid (0,)
C       -1.9871160961   -1.8288418810    2.2410846891
C       -2.8429047786    0.1856430357    3.4755340809
C       -2.1475617072   -0.7021431948    4.4811219589
C       -1.6597833405   -0.6655344019    3.0409586937
C       -0.0487644080   -0.1989780893    0.4223635225
C        1.6005025819    0.7654299721    2.0515186540
C        1.1242855617   -1.6987880282    2.1198884998
C        0.5318705012   -0.3114621754    1.8382988795
N       -2.3235214871   -2.7708657239    1.6438564195
O       -0.4652629218    0.0468103652    2.8435977934
H       -3.8335979567   -0.0917248308    3.1304349291
H       -2.6323918482    1.2495601125    3.5097430527
H       -1.4717086647   -0.2320194475    5.1879343526
H       -2.6566842933   -1.5940913031    4.8314592724
H       -0.7994956144   -0.9633492392    0.2148715892
H       -0.5025544200    0.7867666431    0.2807361592
H        0.7525134520   -0.3163041962   -0.3145492493
H        1.9988633972    0.7118403715    3.0688292971
H        1.1737601362    1.7610475883    1.8996155928
H        2.4247280021    0.6269559930    1.3456560761
H        1.4722326933   -1.7538831376    3.1560170133
H        0.4082238975   -2.5040037904    1.9474342625
H        1.9811915221   -1.8737076120    1.4611411347
23   
torsion grid (15,)
C       -1.9185515988   -1.9246495241    2.3497418049
C       -2.8157372908    0.1938908182    3.3451517155
C       -2.2308197289   -0.6142879526    4.4797829178
C       -1.6178262688   -0.7200891873    3.0983584798
C       -0.1258932339   -0.1502775504    0.5074147361
C        1.6136634299    0.7433495464    2.0831381113
C        1.1807592387   -1.7285710099    2.0257679242
C        0.5497331695   -0.3385196600    1.8721170162
N       -2.2393582605   -2.8870181460    1.7769606050
O       -0.3818235725   -0.0690685254    2.9655096890
H       -3.7808052057   -0.0952604066    2.9415760940
H       -2.5804682755    1.2522979813    3.3053894119
H       -1.6062513862   -0.0974446938    5.2011467253
H       -2.7895663720   -1.4630439971    4.8599250636
H       -0.8703163174   -0.9208006367    0.2979165389
H       -0.6109269276    0.8296454057    0.4585444686
H        0.6278014365   -0.1981370945   -0.2851874659
H        2.0643418782    0.6457689470    3.0750214245
H        1.1674736376    1.7388695586    2.0029886058
H        2.4028476663    0.6518334617    1.3310396331
H        1.6041555794   -1.8368449444    3.0289452569
H        0.4650652610   -2.5348881700    1.8591596665
H        1.9893273501   -1.8483971902    1.2971382509
23   
torsion grid (30,)
C       -1.8577349185   -2.0221557334    2.4616191323
C       -2.7634185895    0.1927184710    3.2127877347
C       -2.2955558773   -0.5295467059    4.4539372930
C       -1.5789218241   -0.7722519612    3.1445745190
C       -0.2024513184   -0.1057911676    0.6011562872
C        1.6163332574    0.7258264148    2.1230418711
C        1.2192866912   -1.7460596002    1.9345767908
C        0.5593513618   -0.3615537040    1.9077528520
N       -2.1564505009   -3.0114473965    1.9240804250
O       -0.3084896908   -0.1887013469    3.0736873200
H       -3.7023117492   -0.1057140760    2.7573179210
H       -2.4927662129    1.2378564675    3.1053203645
H       -1.7145624329    0.0304423141    5.1794273993
H       -2.9086087875   -1.3291646699    4.8558092519
H       -0.9473958752   -0.8769534675    0.3932563720
H       -0.7041191404    0.8662928350    0.6359403288
H        0.5016135400   -0.0963097663   -0.2368496019
H        2.1152849477    0.5843498033    3.0861528127
H        1.1535084382    1.7170484117    2.1166942521
H        2.3705508625    0.6861581616    1.3314973117
H        1.7078592455   -1.9073040885    2.9001825249
H        0.5051167907   -2.5530743152    1.7657754645
H        1.9807059909   -1.8063078496    1.1498080474
23   
torsion grid (45,)
C       -1.8203241849   -2.1170674780    2.5871987807
C       -2.6987644907    0.1877274743    3.0927989383
C       -2.3374885614   -0.4459952064    4.4143456137
C       -1.5496910206   -0.8170827613    3.1786592429
C       -0.2654923909   -0.0671356225    0.6837584116
C        1.6107242517    0.7101263833    2.1669778779
C        1.2386637583   -1.7541916245    1.8450794665
C        0.5616132143   -0.3809117747    1.9358483446
N       -2.0937863945   -3.1430180908    2.1085340563
O       -0.2493567424   -0.3106973921    3.1567533342
H       -3.6163842444   -0.1166430557    2.5994319077
H       -2.3876249014    1.2134234062    2.9255637130
H       -1.7842842078    0.1521160799    5.1310185961
H       -3.0019517767   -1.1923964321    4.8361577523
H       -1.0142294062   -0.8351304238    0.4752568370
H       -0.7709566586    0.8981186537    0.7825568659
H        0.3995795038   -0.0139393464   -0.1838030518
H        2.1562080728    0.5201796503    3.0959319484
H        1.1335274030    1.6917838620    2.2424557054
H        2.3283008053    0.7317989358    1.3412603992
H        1.7719711210   -1.9685524588    2.7758845304
H        0.5231844231   -2.5572890636    1.6618218940
H        1.9633866357   -1.7568666847    1.0240555093
23   
torsion grid (60,)
C       -1.7995860817   -2.2182223076    2.7229022389
C       -2.6570605491    0.1549711439    2.9709700000
C       -2.3766898703   -0.3794586261    4.3524755169
C       -1.5404726506   -0.8624684621    3.1851332576
C       -0.2882005287   -0.0054312172    0.7439150153
C        1.6077271056    0.6961387384    2.2431932098
C        1.2413397376   -1.7463922020    1.7593031294
C        0.5625582749   -0.3852858687    1.9599724745
N       -2.0379391779   -3.2935681092    2.3446167988
O       -0.2185680240   -0.4244293257    3.2052886768
H       -3.5546792203   -0.1692471264    2.4538930933
H       -2.3212044016    1.1610846139    2.7455157932
H       -1.8428954794    0.2607410133    5.0469832683
H       -3.0767866070   -1.0785524620    4.7969727865
H       -1.0624856316   -0.7473737275    0.5319876556
H       -0.7638424171    0.9701167409    0.8775080171
H        0.3592156154    0.0538802978   -0.1363570403
H        2.1772093015    0.4458373392    3.1429339328
H        1.1248114224    1.6653851154    2.4003340551
H        2.3051630731    0.7841077523    1.4045375687
H        1.7981265265   -2.0224945298    2.6594137062
H        0.5176478869   -2.5355136010    1.5457105943
H        1.9434359040   -1.6954681595    0.9203429252
23   
torsion grid (75,)
C       -1.5000821484   -2.3756745068    3.2716826026
C       -2.7266336280   -0.2184753934    2.7150180587
C       -2.4725263776   -0.2625335236    4.1983887046
C       -1.4817497308   -0.9183370050    3.2516071673
C       -0.2219535445    0.3866305212    0.8160609774
C        1.7676532246    0.5385659640    2.3474273210
C        0.9654315285   -1.7117344327    1.5573420310
C        0.5438210488   -0.2927345915    1.9562970394
N       -1.5484526609   -3.5385796435    3.3075285989
O       -0.2302140300   -0.3084192014    3.2035831490
H       -3.5143567743   -0.8374712440    2.2971581284
H       -2.5574658824    0.7241434614    2.2096021935
H       -2.1009786984    0.6391783714    4.6737442407
H       -3.0807191521   -0.9098040135    4.8207545135
H       -1.0929049169   -0.1950830188    0.5037990391
H       -0.5487918163    1.3899954670    1.1059477245
H        0.4373432645    0.4839892015   -0.0523230434
H        2.3023262881    0.0611464930    3.1734414867
H        1.4629880431    1.5394644433    2.6673752517
H        2.4509355453    0.6354344391    1.4985731341
H        1.4275746241   -2.2282875199    2.4029874692
H        0.1209669729   -2.3113904140    1.2094900027
H        1.6946130292   -1.6616668235    0.7420608832
23   
torsion grid (90,)
C       -1.1025480618   -2.2295957180    3.9630223328
C       -2.6486053851   -0.8144100541    2.5204259763
C       -2.6361668848   -0.2421578950    3.9136522992
C       -1.3916630745   -0.9270145703    3.3729495884
C       -0.0712130854    0.8581031911    0.9545667311
C        1.9007235339    0.2449735616    2.3859088268
C        0.5188541423   -1.5760406822    1.3342778169
C        0.4953729178   -0.1709783033    1.9421163913
N       -0.8787394604   -3.2653862124    4.4455966365
O       -0.2725182129   -0.1182918687    3.1943809166
H       -3.2060104216   -1.7266738039    2.3329200213
H       -2.6132020058   -0.1174365288    1.6931972563
H       -2.5420580482    0.8336768630    4.0165859734
H       -3.1922414595   -0.7466816742    4.6963555339
H       -1.0311977346    0.5444542980    0.5374627965
H       -0.2029064994    1.8238646051    1.4511539495
H        0.6201788149    0.9938831208    0.1164142592
H        2.2982221822   -0.4735387155    3.1079785099
H        1.8723789125    1.2297202135    2.8618259017
H        2.5774430839    0.2929594570    1.5272230640
H        0.9272816157   -2.3061830929    2.0378330115
H       -0.4774829572   -1.9076941634    1.0295563361
H        1.1529222966   -1.5711949974    0.4421425447
23   
torsion grid (105,)
C       -1.1217566103   -2.1729042588    4.1920010664
C       -2.5677393985   -0.9755585287    2.4825742995
C       -2.6456458916   -0.2235044350    3.7841268753
C       -1.3652045427   -0.9631043345    3.4143133778
C       -0.0886731206    0.9511023733    1.0646845329
C        1.9236350867    0.1868030749    2.3520030766
C        0.4617755791   -1.5276191444    1.2402747488
C        0.4897280028   -0.1665706812    1.9430732400
N       -0.9348983469   -3.1329312020    4.8239453248
O       -0.2132417368   -0.1993910031    3.2293160623
H       -3.1017408299   -1.9155819974    2.3866176018
H       -2.4954475163   -0.3989277114    1.5703503392
H       -2.5574230814    0.8572309663    3.7459091874
H       -3.2507973060   -0.6219390498    4.5913632412
H       -1.0858745484    0.7146327301    0.6865589117
H       -0.1457182473    1.8830136616    1.6345991918
H        0.5581058382    1.1184408160    0.1971409025
H        2.3367467170   -0.5938433550    2.9965962945
H        1.9383302831    1.1307674399    2.9046974500
H        2.5618460890    0.2900615794    1.4690770994
H        0.8373499387   -2.3126024340    1.9031866710
H       -0.5415723570   -1.8059034809    0.9097180934
H        1.1050402077   -1.4933139952    0.3554190856
23   
torsion grid (120,)
C       -1.1996388743   -2.1337005525    4.3518759067
C       -2.5150534962   -1.0779668261    2.4705683781
C       -2.6172023099   -0.1797107051    3.6754424507
C       -1.3514830858   -0.9992919382    3.4481654311
C       -0.1336080142    0.9814097669    1.1757489590
C        1.9396972666    0.1661244824    2.3199260494
C        0.4692376894   -1.4995624782    1.1538723063
C        0.4954612902   -0.1879199986    1.9471110311
N       -1.0977757141   -3.0351070971    5.0817165284
O       -0.1365454017   -0.3357767624    3.2564047690
H       -3.0746949496   -2.0077899390    2.4600836027
H       -2.3973650235   -0.6137389627    1.5015116980
H       -2.4888140753    0.8858685490    3.5145963958
H       -3.2718523677   -0.4581053803    4.4944962416
H       -1.1504156051    0.7711114773    0.8370609309
H       -0.1582217562    1.8743325907    1.8071773159
H        0.4651027116    1.2074330530    0.2873425407
H        2.3952211829   -0.6499146121    2.8873459796
H        1.9611193858    1.0676498214    2.9389895292
H        2.5354211925    0.3460964716    1.4199288820
H        0.8795999420   -2.3145351671    1.7575333212
H       -0.5364526745   -1.7813942699    0.8358705974
H        1.0850868955   -1.3971544927    0.2547778290
23   
torsion grid (135,)
C       -1.2771261386   -2.0815049478    4.4817208675
C       -2.4816621492   -1.1624540583    2.4731143713
C       -2.5709591587   -0.1352137444    3.5749837335
C       -1.3417064879   -1.0307271862    3.4732000987
C       -0.1809005891    0.9856482425    1.2828960392
C        1.9480519055    0.1519099276    2.3000540999
C        0.4900544970   -1.4710006269    1.0645920958
C        0.5017170527   -0.2181093017    1.9500611685
N       -1.2572800671   -2.9159654349    5.2930888857
O       -0.0669923523   -0.4911965454    3.2640575712
H       -3.0847494968   -2.0619594591    2.5444644133
H       -2.3251844169   -0.8098530851    1.4634972962
H       -2.3968175834    0.9006029327    3.3026120530
H       -3.2588721561   -0.2944378557    4.3987277868
H       -1.2065063060    0.7798705353    0.9690668330
H       -0.1937103099    1.8369958117    1.9697839937
H        0.3787503943    1.2786588243    0.3887909106
H        2.4439917764   -0.6868510829    2.7958469752
H        1.9665261899    1.0102876191    2.9775262166
H        2.5072233760    0.4073679059    1.3950123569
H        0.9447815914   -2.3097326817    1.5997597228
H       -0.5148686266   -1.7668123236    0.7582718952
H        1.0730632637   -1.2871664353    0.1564172892
23   
torsion grid (150,)
C       -1.3346543948   -2.0076767995    4.5927057304
C       -2.4710017089   -1.2361460353    2.4891670000
C       -2.5268797354   -0.1074970256    3.4949128699
C       -1.3358563172   -1.0591012154    3.4857401711
C       -0.2133163353    0.9791057345    1.3698054643
C        1.9508712544    0.1324403812    2.2958863152
C        0.5110929255   -1.4343703399    0.9703964208
C        0.5071965396   -0.2489351601    1.9459483103
N       -1.3745155627   -2.7587068770    5.4808423343
O       -0.0177240723   -0.6504452421    3.2439642467
H       -3.1160168020   -2.0980787325    2.6267299929
H       -2.2876627978   -0.9763018891    1.4556824660
H       -2.3316662555    0.8948798006    3.1317454709
H       -3.2222132895   -0.1721486406    4.3253396965
H       -1.2280211062    0.7635753356    1.0276037567
H       -0.2563033668    1.7788014115    2.1149228320
H        0.3447087233    1.3532509791    0.5056352534
H        2.4664693756   -0.7182393257    2.7493463158
H        1.9631753391    0.9611369787    3.0094471050
H        2.4947879121    0.4349481153    1.3960823697
H        1.0148898288   -2.2901596788    1.4287389463
H       -0.4929779608   -1.7478483195    0.6790424182
H        1.0524420154   -1.1641264253    0.0578611875
23   
torsion grid (165,)
C       -1.3578620951   -1.9082271938    4.6911795559
C       -2.4795395320   -1.3208758421    2.5172274368
C       -2.5039071893   -0.1055069825    3.4228232677
C       -1.3356363318   -1.0850892353    3.4876968450
C       -0.2229636968    0.9798470980    1.4376026598
C        1.9519537412    0.1008241083    2.3089267053
C        0.5247027281   -1.3818554326    0.8730285310
C        0.5121484410   -0.2720120208    1.9348983620
N       -1.4234231832   -2.5532867635    5.6573764792
O        0.0039010897   -0.7966915342    3.1957743616
H       -3.1510924241   -2.1489443159    2.7206053725
H       -2.2849811527   -1.1489717959    1.4664583280
H       -2.3164697834    0.8618054925    2.9759839772
H       -3.1868496528   -0.0948746169    4.2659605062
H       -1.2235751189    0.7653455024    1.0545242666
H       -0.2962509618    1.7287100461    2.2312345469
H        0.3474273494    1.4197881088    0.6135879917
H        2.4719985333   -0.7695792450    2.7175911505
H        1.9563233294    0.8896470924    3.0664642195
H        2.4966153630    0.4544363177    1.4283431630
H        1.0439203408   -2.2621886536    1.2620045532
H       -0.4800548316   -1.6857516964    0.5721740594
H        1.0504392459   -1.0381914076   -0.0239196652
23   
torsion grid (180,)
C       -1.4413342375   -1.3349592999    4.9301701873
C       -2.2289032904   -1.9473226655    2.6641430282
C       -2.6510873777   -0.5068331249    2.8828879512
C       -1.3648385357   -1.0137191155    3.5092277433
C        0.0924848534    1.3331081067    1.7252751697
C        2.0019813354   -0.2102557576    2.2557687802
C        0.1413986920   -1.0170180588    0.7868942436
C        0.4949150493   -0.1267571585    1.9839331637
N       -1.5455573897   -1.6180726499    6.0538917084
O       -0.0626181031   -0.5640424887    3.2586477037
H       -2.7575774176   -2.7288834221    3.2001676535
H       -1.8784960920   -2.2338902792    1.6835729041
H       -2.5454707363    0.1655661978    2.0399225412
H       -3.4911692827   -0.2880871378    3.5344101068
H       -0.9748352668    1.4370688887    1.5159862700
H        0.3310320254    1.9465772109    2.5984117109
H        0.6393693178    1.7288020930    0.8629843367
H        2.2980432579   -1.2469573129    2.4395252888
H        2.2583476329    0.3805930614    3.1390717311
H        2.5675252942    0.1724815241    1.4007590209
H        0.3144697528   -2.0725642381    1.0139793768
H       -0.8896159934   -0.8823214632    0.4501859508
H        0.7887607204   -0.7441558800   -0.0522698972
